
     RDKit          2D

 29 32  0  0  0  0  0  0  0  0999 V2000
   21.0673   -6.3523    0.0000 C   0  0  0  0  0  0  0  0  0  0  0  0
   21.7815   -6.7654    0.0000 C   0  0  0  0  0  0  0  0  0  0  0  0
   22.4936   -6.3511    0.0000 N   0  0  0  0  0  0  0  0  0  0  0  0
   22.4910   -5.5255    0.0000 C   0  0  0  0  0  0  0  0  0  0  0  0
   21.7702   -5.1161    0.0000 C   0  0  0  0  0  0  0  0  0  0  0  0
   21.0610   -5.5327    0.0000 C   0  0  0  0  0  0  0  0  0  0  0  0
   16.7750   -5.5477    0.0000 C   0  0  0  0  0  0  0  0  0  0  0  0
   16.7738   -6.3747    0.0000 C   0  0  0  0  0  0  0  0  0  0  0  0
   17.4884   -6.7874    0.0000 N   0  0  0  0  0  0  0  0  0  0  0  0
   18.2045   -6.3743    0.0000 C   0  0  0  0  0  0  0  0  0  0  0  0
   18.2016   -5.5440    0.0000 C   0  0  0  0  0  0  0  0  0  0  0  0
   17.4866   -5.1351    0.0000 N   0  0  0  0  0  0  0  0  0  0  0  0
   18.9143   -5.1290    0.0000 C   0  0  0  0  0  0  0  0  0  0  0  0
   19.6300   -5.5386    0.0000 N   0  0  0  0  0  0  0  0  0  0  0  0
   18.9111   -4.3043    0.0000 O   0  0  0  0  0  0  0  0  0  0  0  0
   16.0628   -5.1357    0.0000 C   0  0  0  0  0  0  0  0  0  0  0  0
   16.0640   -4.3099    0.0000 C   0  0  0  0  0  0  0  0  0  0  0  0
   15.3505   -3.8978    0.0000 C   0  0  0  0  0  0  0  0  0  0  0  0
   14.6355   -4.3104    0.0000 C   0  0  0  0  0  0  0  0  0  0  0  0
   14.6383   -5.1393    0.0000 C   0  0  0  0  0  0  0  0  0  0  0  0
   15.3524   -5.5476    0.0000 C   0  0  0  0  0  0  0  0  0  0  0  0
   13.9207   -3.8992    0.0000 Cl  0  0  0  0  0  0  0  0  0  0  0  0
   20.3426   -5.1237    0.0000 C   0  0  0  0  0  0  0  0  0  0  0  0
   21.7640   -4.2944    0.0000 N   0  0  0  0  0  0  0  0  0  0  0  0
   22.4770   -3.8781    0.0000 C   0  0  0  0  0  0  0  0  0  0  0  0
   22.4730   -3.0570    0.0000 C   0  0  0  0  0  0  0  0  0  0  0  0
   21.7576   -2.6461    0.0000 O   0  0  0  0  0  0  0  0  0  0  0  0
   21.0447   -3.0623    0.0000 C   0  0  0  0  0  0  0  0  0  0  0  0
   21.0470   -3.8897    0.0000 C   0  0  0  0  0  0  0  0  0  0  0  0
  3  4  2  0
 13 15  2  0
  7  8  2  0
 16 17  2  0
  8  9  1  0
 17 18  1  0
  4  5  1  0
 18 19  2  0
  9 10  2  0
 19 20  1  0
  2  3  1  0
 20 21  2  0
 21 16  1  0
  7 16  1  0
 10 11  1  0
 19 22  1  0
  5  6  2  0
 14 23  1  0
 23  6  1  0
 24 25  1  0
 11 12  2  0
 12  7  1  0
  6  1  1  0
 11 13  1  0
  1  2  2  0
 13 14  1  0
 24 29  1  0
 25 26  1  0
 26 27  1  0
 27 28  1  0
 28 29  1  0
  5 24  1  0
M  END
> <chembl_id>
CHEMBL1277792

> <chembl_pref_name>
None

$$$$

     RDKit          2D

 24 27  0  0  0  0  0  0  0  0999 V2000
   -1.9885    0.2001    0.0000 C   0  0  0  0  0  0  0  0  0  0  0  0
   -1.2338    0.5338    0.0000 O   0  0  0  0  0  0  0  0  0  0  0  0
   -0.6817   -0.0796    0.0000 C   0  0  0  0  0  0  0  0  0  0  0  0
   -1.0972   -0.7956    0.0000 C   0  0  0  0  0  0  0  0  0  0  0  0
   -1.9023   -0.6193    0.0000 C   0  0  0  0  0  0  0  0  0  0  0  0
   -2.7018    0.6139    0.0000 C   0  0  0  0  0  0  0  0  0  0  0  0
   -3.4173    0.2005    0.0000 C   0  0  0  0  0  0  0  0  0  0  0  0
   -4.1309    0.6134    0.0000 C   0  0  0  0  0  0  0  0  0  0  0  0
   -4.1303    1.4394    0.0000 C   0  0  0  0  0  0  0  0  0  0  0  0
   -3.4101    1.8510    0.0000 C   0  0  0  0  0  0  0  0  0  0  0  0
   -2.6994    1.4358    0.0000 C   0  0  0  0  0  0  0  0  0  0  0  0
    0.1390    0.0057    0.0000 C   0  0  0  0  0  0  0  0  0  0  0  0
    0.4756    0.7592    0.0000 O   0  0  0  0  0  0  0  0  0  0  0  0
    0.6233   -0.6625    0.0000 N   0  0  0  0  0  0  0  0  0  0  0  0
    1.4441   -0.5772    0.0000 C   0  0  0  0  0  0  0  0  0  0  0  0
    1.7761    0.1750    0.0000 C   0  0  0  0  0  0  0  0  0  0  0  0
    2.5960    0.2607    0.0000 C   0  0  0  0  0  0  0  0  0  0  0  0
    1.9214   -1.2462    0.0000 C   0  0  0  0  0  0  0  0  0  0  0  0
   -4.8438    1.8539    0.0000 Cl  0  0  0  0  0  0  0  0  0  0  0  0
    3.0813   -0.4065    0.0000 C   0  0  0  0  0  0  0  0  0  0  0  0
    2.7404   -1.1643    0.0000 C   0  0  0  0  0  0  0  0  0  0  0  0
    3.3559   -1.7226    0.0000 N   0  0  0  0  0  0  0  0  0  0  0  0
    4.0770   -1.3099    0.0000 C   0  0  0  0  0  0  0  0  0  0  0  0
    3.9073   -0.4965    0.0000 C   0  0  0  0  0  0  0  0  0  0  0  0
  1  2  1  0
  3 12  1  0
 12 13  2  0
  6  7  2  0
 12 14  1  0
  2  3  1  0
 14 15  1  0
  7  8  1  0
 15 16  2  0
  3  4  2  0
 16 17  1  0
 17 20  2  0
  8  9  2  0
 21 18  2  0
 18 15  1  0
  4  5  1  0
  9 19  1  0
 20 21  1  0
  9 10  1  0
  5  1  2  0
 10 11  2  0
 11  6  1  0
  1  6  1  0
 21 22  1  0
 22 23  1  0
 23 24  2  0
 24 20  1  0
M  END
> <chembl_id>
CHEMBL400355

> <chembl_pref_name>
None

$$$$
 
     RDKit          2D

 37 41  0  0  0  0  0  0  0  0999 V2000
   20.1037   -1.7706    0.0000 O   0  0  0  0  0  0  0  0  0  0  0  0
   20.5165   -2.4805    0.0000 S   0  0  0  0  0  0  0  0  0  0  0  0
   20.9249   -1.7681    0.0000 O   0  0  0  0  0  0  0  0  0  0  0  0
   18.3978   -2.8973    0.0000 C   0  0  0  0  0  0  0  0  0  0  0  0
   19.8143   -3.7163    0.0000 C   0  0  0  0  0  0  0  0  0  0  0  0
   19.8115   -2.8937    0.0000 C   0  0  0  0  0  0  0  0  0  0  0  0
   19.1029   -2.4884    0.0000 C   0  0  0  0  0  0  0  0  0  0  0  0
   21.2269   -2.8883    0.0000 N   0  0  0  0  0  0  0  0  0  0  0  0
   19.1047   -4.1258    0.0000 C   0  0  0  0  0  0  0  0  0  0  0  0
   18.3997   -3.7166    0.0000 C   0  0  0  0  0  0  0  0  0  0  0  0
   17.6967   -4.1203    0.0000 C   0  0  0  0  0  0  0  0  0  0  0  0
   17.6926   -4.9349    0.0000 C   0  0  0  0  0  0  0  0  0  0  0  0
   18.3976   -5.3440    0.0000 C   0  0  0  0  0  0  0  0  0  0  0  0
   19.1067   -4.9387    0.0000 O   0  0  0  0  0  0  0  0  0  0  0  0
   16.9905   -3.7091    0.0000 N   0  0  0  0  0  0  0  0  0  0  0  0
   16.9985   -2.8942    0.0000 C   0  0  0  0  0  0  0  0  0  0  0  0
   16.2964   -2.4831    0.0000 C   0  0  0  0  0  0  0  0  0  0  0  0
   15.5848   -2.8856    0.0000 C   0  0  0  0  0  0  0  0  0  0  0  0
   15.5798   -3.7038    0.0000 C   0  0  0  0  0  0  0  0  0  0  0  0
   16.2865   -4.1194    0.0000 C   0  0  0  0  0  0  0  0  0  0  0  0
   14.8801   -2.4718    0.0000 C   0  0  0  0  0  0  0  0  0  0  0  0
   16.2848   -4.9366    0.0000 C   0  0  0  0  0  0  0  0  0  0  0  0
   15.5749   -5.3427    0.0000 C   0  0  0  0  0  0  0  0  0  0  0  0
   15.5729   -6.1592    0.0000 C   0  0  0  0  0  0  0  0  0  0  0  0
   16.2803   -6.5700    0.0000 C   0  0  0  0  0  0  0  0  0  0  0  0
   16.9912   -6.1585    0.0000 C   0  0  0  0  0  0  0  0  0  0  0  0
   16.9897   -5.3434    0.0000 N   0  0  0  0  0  0  0  0  0  0  0  0
   14.8862   -1.6546    0.0000 F   0  0  0  0  0  0  0  0  0  0  0  0
   14.1694   -2.8751    0.0000 F   0  0  0  0  0  0  0  0  0  0  0  0
   14.1688   -2.0595    0.0000 F   0  0  0  0  0  0  0  0  0  0  0  0
   21.2289   -3.7055    0.0000 C   0  0  0  0  0  0  0  0  0  0  0  0
   20.5215   -4.1101    0.0000 C   0  0  0  0  0  0  0  0  0  0  0  0
   20.5232   -4.9265    0.0000 C   0  0  0  0  0  0  0  0  0  0  0  0
   21.2324   -5.3342    0.0000 N   0  0  0  0  0  0  0  0  0  0  0  0
   21.9415   -4.9195    0.0000 C   0  0  0  0  0  0  0  0  0  0  0  0
   21.9363   -4.1044    0.0000 N   0  0  0  0  0  0  0  0  0  0  0  0
   19.1004   -1.6712    0.0000 F   0  0  0  0  0  0  0  0  0  0  0  0
  2  1  2  0
  3  2  2  0
  4 10  2  0
  9  5  2  0
  5  6  1  0
  6  7  2  0
  7  4  1  0
  6  2  1  0
  2  8  1  0
  9 10  1  0
  9 14  1  0
 10 11  1  0
 11 12  1  0
 12 13  1  0
 13 14  1  0
 11 15  1  6
 15 16  1  0
 15 20  1  0
 16 17  1  0
 17 18  1  0
 18 19  1  0
 19 20  1  0
 18 21  1  1
 20 22  1  1
 22 23  2  0
 23 24  1  0
 24 25  2  0
 25 26  1  0
 26 27  2  0
 27 22  1  0
 21 28  1  0
 21 29  1  0
 21 30  1  0
  8 31  1  0
 31 32  2  0
 32 33  1  0
 33 34  2  0
 34 35  1  0
 35 36  2  0
 36 31  1  0
  7 37  1  0
M  END
> <chembl_id>
CHEMBL4464990

> <chembl_pref_name>
None

$$$$

     RDKit          2D

 28 30  0  0  0  0  0  0  0  0999 V2000
   24.7983  -23.2763    0.0000 C   0  0  0  0  0  0  0  0  0  0  0  0
   25.5128  -23.6895    0.0000 C   0  0  0  0  0  0  0  0  0  0  0  0
   26.2252  -23.2750    0.0000 C   0  0  0  0  0  0  0  0  0  0  0  0
   26.2225  -22.4492    0.0000 N   0  0  0  0  0  0  0  0  0  0  0  0
   25.5015  -22.0395    0.0000 C   0  0  0  0  0  0  0  0  0  0  0  0
   24.7920  -22.4564    0.0000 C   0  0  0  0  0  0  0  0  0  0  0  0
   25.4955  -21.2146    0.0000 Cl  0  0  0  0  0  0  0  0  0  0  0  0
   20.5069  -22.4708    0.0000 C   0  0  0  0  0  0  0  0  0  0  0  0
   20.5057  -23.2982    0.0000 C   0  0  0  0  0  0  0  0  0  0  0  0
   21.2206  -23.7110    0.0000 N   0  0  0  0  0  0  0  0  0  0  0  0
   21.9370  -23.2977    0.0000 C   0  0  0  0  0  0  0  0  0  0  0  0
   21.9341  -22.4672    0.0000 C   0  0  0  0  0  0  0  0  0  0  0  0
   21.2188  -22.0580    0.0000 N   0  0  0  0  0  0  0  0  0  0  0  0
   22.6471  -22.0520    0.0000 C   0  0  0  0  0  0  0  0  0  0  0  0
   23.3631  -22.4618    0.0000 N   0  0  0  0  0  0  0  0  0  0  0  0
   22.6439  -21.2270    0.0000 O   0  0  0  0  0  0  0  0  0  0  0  0
   19.7944  -22.0586    0.0000 C   0  0  0  0  0  0  0  0  0  0  0  0
   19.7956  -21.2325    0.0000 C   0  0  0  0  0  0  0  0  0  0  0  0
   19.0818  -20.8203    0.0000 C   0  0  0  0  0  0  0  0  0  0  0  0
   18.3665  -21.2330    0.0000 C   0  0  0  0  0  0  0  0  0  0  0  0
   18.3693  -22.0623    0.0000 C   0  0  0  0  0  0  0  0  0  0  0  0
   19.0837  -22.4708    0.0000 C   0  0  0  0  0  0  0  0  0  0  0  0
   17.6514  -20.8216    0.0000 O   0  0  0  0  0  0  0  0  0  0  0  0
   16.9375  -21.2352    0.0000 C   0  0  0  0  0  0  0  0  0  0  0  0
   16.9388  -22.0602    0.0000 F   0  0  0  0  0  0  0  0  0  0  0  0
   16.2224  -20.8239    0.0000 F   0  0  0  0  0  0  0  0  0  0  0  0
   16.2208  -21.6417    0.0000 F   0  0  0  0  0  0  0  0  0  0  0  0
   24.0760  -22.0466    0.0000 C   0  0  0  0  0  0  0  0  0  0  0  0
 12 14  1  0
  5  7  1  0
 14 15  1  0
  3  4  2  0
 14 16  2  0
  8  9  2  0
 17 18  2  0
  4  5  1  0
 18 19  1  0
  9 10  1  0
 19 20  2  0
  2  3  1  0
 20 21  1  0
 10 11  2  0
 21 22  2  0
 22 17  1  0
  8 17  1  0
  5  6  2  0
 20 23  1  0
 11 12  1  0
 23 24  1  0
  6  1  1  0
 24 25  1  0
 12 13  2  0
 24 26  1  0
 13  8  1  0
 24 27  1  0
  1  2  2  0
 15 28  1  0
 28  6  1  0
M  END
> <chembl_id>
CHEMBL1276881

> <chembl_pref_name>
None

$$$$

     RDKit          2D

 22 24  0  0  0  0  0  0  0  0999 V2000
    3.2182  -13.0621    0.0000 O   0  0  0  0  0  0  0  0  0  0  0  0
    2.4094  -12.8908    0.0000 C   0  0  0  0  0  0  0  0  0  0  0  0
    2.3253  -12.0687    0.0000 C   0  0  0  0  0  0  0  0  0  0  0  0
    3.0773  -11.7339    0.0000 C   0  0  0  0  0  0  0  0  0  0  0  0
    3.6307  -12.3479    0.0000 C   0  0  0  0  0  0  0  0  0  0  0  0
    1.6111  -11.6561    0.0000 C   0  0  0  0  0  0  0  0  0  0  0  0
    1.6111  -10.8310    0.0000 O   0  0  0  0  0  0  0  0  0  0  0  0
    0.8969  -12.0687    0.0000 N   0  0  0  0  0  0  0  0  0  0  0  0
    0.1827  -11.6561    0.0000 C   0  0  0  0  0  0  0  0  0  0  0  0
   -0.5361  -12.0687    0.0000 C   0  0  0  0  0  0  0  0  0  0  0  0
   -1.2503  -11.6561    0.0000 C   0  0  0  0  0  0  0  0  0  0  0  0
   -1.2503  -10.8310    0.0000 C   0  0  0  0  0  0  0  0  0  0  0  0
   -0.5361  -10.4185    0.0000 C   0  0  0  0  0  0  0  0  0  0  0  0
    0.1827  -10.8310    0.0000 C   0  0  0  0  0  0  0  0  0  0  0  0
   -1.9645  -12.0687    0.0000 C   0  0  0  0  0  0  0  0  0  0  0  0
    4.4527  -12.3416    0.0000 C   0  0  0  0  0  0  0  0  0  0  0  0
    4.8657  -11.6274    0.0000 C   0  0  0  0  0  0  0  0  0  0  0  0
    5.6880  -11.6211    0.0000 C   0  0  0  0  0  0  0  0  0  0  0  0
    6.1055  -12.3392    0.0000 C   0  0  0  0  0  0  0  0  0  0  0  0
    5.6925  -13.0534    0.0000 C   0  0  0  0  0  0  0  0  0  0  0  0
    4.8706  -13.0550    0.0000 C   0  0  0  0  0  0  0  0  0  0  0  0
    6.9278  -12.3329    0.0000 Cl  0  0  0  0  0  0  0  0  0  0  0  0
  1  2  1  0
  2  3  2  0
  3  4  1  0
  4  5  2  0
  1  5  1  0
  6  7  2  0
  6  8  1  0
  3  6  1  0
  9 10  1  0
 10 11  2  0
 11 12  1  0
 12 13  2  0
 13 14  1  0
  9 14  2  0
 11 15  1  0
  8  9  1  0
 16 17  1  0
 17 18  2  0
 18 19  1  0
 19 20  2  0
 20 21  1  0
 16 21  2  0
 19 22  1  0
  5 16  1  0
M  END
> <chembl_id>
CHEMBL254384

> <chembl_pref_name>
None

$$$$

     RDKit          2D

 26 28  0  0  0  0  0  0  0  0999 V2000
   10.3072   -3.7457    0.0000 C   0  0  0  0  0  0  0  0  0  0  0  0
   11.0526   -4.0898    0.0000 O   0  0  0  0  0  0  0  0  0  0  0  0
   11.6160   -3.4844    0.0000 C   0  0  0  0  0  0  0  0  0  0  0  0
   11.2143   -2.7611    0.0000 C   0  0  0  0  0  0  0  0  0  0  0  0
   10.4062   -2.9276    0.0000 C   0  0  0  0  0  0  0  0  0  0  0  0
    9.5867   -4.1459    0.0000 C   0  0  0  0  0  0  0  0  0  0  0  0
    8.8774   -3.7230    0.0000 C   0  0  0  0  0  0  0  0  0  0  0  0
    8.1566   -4.1222    0.0000 C   0  0  0  0  0  0  0  0  0  0  0  0
    8.1439   -4.9482    0.0000 C   0  0  0  0  0  0  0  0  0  0  0  0
    8.8579   -5.3734    0.0000 C   0  0  0  0  0  0  0  0  0  0  0  0
    9.5757   -4.9677    0.0000 C   0  0  0  0  0  0  0  0  0  0  0  0
   12.4355   -3.5824    0.0000 C   0  0  0  0  0  0  0  0  0  0  0  0
   12.7621   -4.3416    0.0000 O   0  0  0  0  0  0  0  0  0  0  0  0
   12.9321   -2.9255    0.0000 N   0  0  0  0  0  0  0  0  0  0  0  0
   13.7515   -3.0236    0.0000 C   0  0  0  0  0  0  0  0  0  0  0  0
   14.0696   -3.7815    0.0000 C   0  0  0  0  0  0  0  0  0  0  0  0
   14.8882   -3.8798    0.0000 C   0  0  0  0  0  0  0  0  0  0  0  0
   15.3858   -3.2184    0.0000 C   0  0  0  0  0  0  0  0  0  0  0  0
   15.0549   -2.4563    0.0000 C   0  0  0  0  0  0  0  0  0  0  0  0
   14.2372   -2.3615    0.0000 C   0  0  0  0  0  0  0  0  0  0  0  0
   15.2105   -4.6393    0.0000 C   0  0  0  0  0  0  0  0  0  0  0  0
    7.4231   -5.3531    0.0000 O   0  0  0  0  0  0  0  0  0  0  0  0
    6.7136   -4.9289    0.0000 C   0  0  0  0  0  0  0  0  0  0  0  0
    7.1203   -4.2092    0.0000 F   0  0  0  0  0  0  0  0  0  0  0  0
    6.2951   -5.6399    0.0000 F   0  0  0  0  0  0  0  0  0  0  0  0
    6.0044   -4.5081    0.0000 F   0  0  0  0  0  0  0  0  0  0  0  0
 12 13  2  0
  6  7  2  0
 12 14  1  0
  2  3  1  0
 14 15  1  0
  7  8  1  0
 15 16  2  0
  3  4  2  0
 16 17  1  0
  8  9  2  0
 17 18  2  0
  4  5  1  0
 18 19  1  0
  9 10  1  0
 19 20  2  0
 20 15  1  0
  5  1  2  0
 17 21  1  0
 10 11  2  0
  9 22  1  0
 11  6  1  0
 22 23  1  0
  1  6  1  0
 23 24  1  0
  1  2  1  0
 23 25  1  0
  3 12  1  0
 23 26  1  0
M  END
> <chembl_id>
CHEMBL250443

> <chembl_pref_name>
None

$$$$

     RDKit          2D

 28 30  0  0  0  0  0  0  0  0999 V2000
    7.0981  -11.8211    0.0000 C   0  0  0  0  0  0  0  0  0  0  0  0
    7.0969  -12.6485    0.0000 N   0  0  0  0  0  0  0  0  0  0  0  0
    7.8117  -13.0614    0.0000 C   0  0  0  0  0  0  0  0  0  0  0  0
    8.5282  -12.6480    0.0000 C   0  0  0  0  0  0  0  0  0  0  0  0
    8.5253  -11.8175    0.0000 C   0  0  0  0  0  0  0  0  0  0  0  0
    7.8099  -11.4084    0.0000 C   0  0  0  0  0  0  0  0  0  0  0  0
    4.9527  -10.5833    0.0000 C   0  0  0  0  0  0  0  0  0  0  0  0
    4.9516  -11.4107    0.0000 C   0  0  0  0  0  0  0  0  0  0  0  0
    5.6664  -11.8235    0.0000 C   0  0  0  0  0  0  0  0  0  0  0  0
    6.3828  -11.4102    0.0000 C   0  0  0  0  0  0  0  0  0  0  0  0
    6.3800  -10.5797    0.0000 C   0  0  0  0  0  0  0  0  0  0  0  0
    5.6646  -10.1705    0.0000 C   0  0  0  0  0  0  0  0  0  0  0  0
    4.2382  -10.1710    0.0000 O   0  0  0  0  0  0  0  0  0  0  0  0
    4.2380   -9.3460    0.0000 C   0  0  0  0  0  0  0  0  0  0  0  0
    3.5234   -8.9336    0.0000 F   0  0  0  0  0  0  0  0  0  0  0  0
    4.9523   -8.9333    0.0000 F   0  0  0  0  0  0  0  0  0  0  0  0
    4.2333   -8.5208    0.0000 F   0  0  0  0  0  0  0  0  0  0  0  0
    9.1473  -11.4232    0.0000 C   0  0  0  0  0  0  0  0  0  0  0  0
    9.8595  -11.8395    0.0000 N   0  0  0  0  0  0  0  0  0  0  0  0
    9.1517  -10.5982    0.0000 O   0  0  0  0  0  0  0  0  0  0  0  0
   10.5762  -11.4308    0.0000 C   0  0  0  0  0  0  0  0  0  0  0  0
   11.2852  -11.8480    0.0000 C   0  0  0  0  0  0  0  0  0  0  0  0
   12.0014  -11.4400    0.0000 C   0  0  0  0  0  0  0  0  0  0  0  0
   12.0063  -10.6142    0.0000 C   0  0  0  0  0  0  0  0  0  0  0  0
   11.2890  -10.1980    0.0000 C   0  0  0  0  0  0  0  0  0  0  0  0
   10.5758  -10.6083    0.0000 C   0  0  0  0  0  0  0  0  0  0  0  0
   12.7135  -11.8567    0.0000 C   0  0  0  0  0  0  0  0  0  0  0  0
   11.2905   -9.3730    0.0000 C   0  0  0  0  0  0  0  0  0  0  0  0
  1  2  2  0
 13 14  1  0
  3  4  2  0
 14 15  1  0
  7  8  2  0
 14 16  1  0
 14 17  1  0
  8  9  1  0
  5 18  1  0
  4  5  1  0
 18 19  1  0
  9 10  2  0
 18 20  2  0
  2  3  1  0
 19 21  1  0
 10 11  1  0
 21 22  2  0
  5  6  2  0
 22 23  1  0
 11 12  2  0
 23 24  2  0
 12  7  1  0
 24 25  1  0
 10  1  1  0
 25 26  2  0
 26 21  1  0
  6  1  1  0
 23 27  1  0
  7 13  1  0
 25 28  1  0
M  END
> <chembl_id>
CHEMBL1271308

> <chembl_pref_name>
None

$$$$

     RDKit          2D

 24 26  0  0  0  0  0  0  0  0999 V2000
    4.0277    2.5167    0.0000 C   0  0  0  0  0  0  0  0  0  0  0  0
    4.0266    1.6893    0.0000 C   0  0  0  0  0  0  0  0  0  0  0  0
    4.7414    1.2765    0.0000 C   0  0  0  0  0  0  0  0  0  0  0  0
    5.4578    1.6898    0.0000 C   0  0  0  0  0  0  0  0  0  0  0  0
    5.4550    2.5203    0.0000 C   0  0  0  0  0  0  0  0  0  0  0  0
    4.7396    2.9295    0.0000 C   0  0  0  0  0  0  0  0  0  0  0  0
    6.1694    1.2792    0.0000 C   0  0  0  0  0  0  0  0  0  0  0  0
    6.1694    0.4531    0.0000 C   0  0  0  0  0  0  0  0  0  0  0  0
    6.8836    0.0418    0.0000 N   0  0  0  0  0  0  0  0  0  0  0  0
    7.5984    0.4555    0.0000 C   0  0  0  0  0  0  0  0  0  0  0  0
    7.5945    1.2847    0.0000 C   0  0  0  0  0  0  0  0  0  0  0  0
    6.8796    1.6923    0.0000 C   0  0  0  0  0  0  0  0  0  0  0  0
    3.3132    2.9290    0.0000 Cl  0  0  0  0  0  0  0  0  0  0  0  0
    8.3068    1.7009    0.0000 C   0  0  0  0  0  0  0  0  0  0  0  0
    9.0234    1.2920    0.0000 N   0  0  0  0  0  0  0  0  0  0  0  0
    8.3026    2.5258    0.0000 O   0  0  0  0  0  0  0  0  0  0  0  0
    9.7358    1.7081    0.0000 C   0  0  0  0  0  0  0  0  0  0  0  0
   10.4523    1.2993    0.0000 C   0  0  0  0  0  0  0  0  0  0  0  0
   10.4514    0.4739    0.0000 C   0  0  0  0  0  0  0  0  0  0  0  0
   11.1672    0.0651    0.0000 C   0  0  0  0  0  0  0  0  0  0  0  0
   11.8805    0.4813    0.0000 C   0  0  0  0  0  0  0  0  0  0  0  0
   11.8736    1.3106    0.0000 N   0  0  0  0  0  0  0  0  0  0  0  0
   11.1573    1.7156    0.0000 C   0  0  0  0  0  0  0  0  0  0  0  0
   11.1496    2.5406    0.0000 Cl  0  0  0  0  0  0  0  0  0  0  0  0
 12  7  1  0
  4  7  1  0
  6  1  1  0
  1 13  1  0
  1  2  2  0
 11 14  1  0
  3  4  2  0
 14 15  1  0
  7  8  2  0
 14 16  2  0
 15 17  1  0
  8  9  1  0
 17 18  1  0
  4  5  1  0
 18 19  2  0
  9 10  2  0
 19 20  1  0
  2  3  1  0
 20 21  2  0
 10 11  1  0
 21 22  1  0
  5  6  2  0
 22 23  2  0
 23 18  1  0
 11 12  2  0
 23 24  1  0
M  END
> <chembl_id>
CHEMBL1270100

> <chembl_pref_name>
None

$$$$

     RDKit          2D

 20 22  0  0  0  0  0  0  0  0999 V2000
   -4.0311   -3.7909    0.0000 C   0  0  0  0  0  0  0  0  0  0  0  0
   -3.2039   -3.7852    0.0000 C   0  0  0  0  0  0  0  0  0  0  0  0
   -2.7971   -3.0670    0.0000 C   0  0  0  0  0  0  0  0  0  0  0  0
   -3.2162   -2.3542    0.0000 C   0  0  0  0  0  0  0  0  0  0  0  0
   -4.0466   -2.3639    0.0000 C   0  0  0  0  0  0  0  0  0  0  0  0
   -4.4497   -3.0826    0.0000 C   0  0  0  0  0  0  0  0  0  0  0  0
   -5.2745   -3.0919    0.0000 Cl  0  0  0  0  0  0  0  0  0  0  0  0
   -1.9722   -3.0604    0.0000 C   0  0  0  0  0  0  0  0  0  0  0  0
   -1.4793   -3.7224    0.0000 C   0  0  0  0  0  0  0  0  0  0  0  0
   -0.6969   -3.4613    0.0000 C   0  0  0  0  0  0  0  0  0  0  0  0
   -0.7035   -2.6363    0.0000 C   0  0  0  0  0  0  0  0  0  0  0  0
   -1.4901   -2.3879    0.0000 O   0  0  0  0  0  0  0  0  0  0  0  0
    0.0054   -2.2228    0.0000 C   0  0  0  0  0  0  0  0  0  0  0  0
    0.7216   -2.6320    0.0000 N   0  0  0  0  0  0  0  0  0  0  0  0
    0.0017   -1.3979    0.0000 O   0  0  0  0  0  0  0  0  0  0  0  0
    0.7224   -3.4589    0.0000 C   0  0  0  0  0  0  0  0  0  0  0  0
    1.4345   -3.8680    0.0000 C   0  0  0  0  0  0  0  0  0  0  0  0
    2.1494   -3.4559    0.0000 O   0  0  0  0  0  0  0  0  0  0  0  0
    2.1477   -2.6301    0.0000 C   0  0  0  0  0  0  0  0  0  0  0  0
    1.4310   -2.2164    0.0000 C   0  0  0  0  0  0  0  0  0  0  0  0
  2  3  1  0
  5  6  2  0
  9 10  1  0
 10 11  2  0
 11 12  1  0
 12  8  1  0
  6  1  1  0
 11 13  1  0
  1  2  2  0
 13 14  1  0
  6  7  1  0
 13 15  2  0
 14 16  1  0
  3  4  2  0
  3  8  1  0
  8  9  2  0
  4  5  1  0
 14 20  1  0
 16 17  1  0
 17 18  1  0
 18 19  1  0
 19 20  1  0
M  END
> <chembl_id>
CHEMBL400960

> <chembl_pref_name>
None

$$$$

     RDKit          2D

 28 30  0  0  0  0  0  0  0  0999 V2000
   -2.2978  -11.3503    0.0000 C   0  0  0  0  0  0  0  0  0  0  0  0
   -2.2989  -12.1777    0.0000 C   0  0  0  0  0  0  0  0  0  0  0  0
   -1.5841  -12.5905    0.0000 N   0  0  0  0  0  0  0  0  0  0  0  0
   -0.8677  -12.1772    0.0000 C   0  0  0  0  0  0  0  0  0  0  0  0
   -0.8705  -11.3467    0.0000 C   0  0  0  0  0  0  0  0  0  0  0  0
   -1.5859  -10.9375    0.0000 C   0  0  0  0  0  0  0  0  0  0  0  0
   -4.4431  -10.1125    0.0000 C   0  0  0  0  0  0  0  0  0  0  0  0
   -4.4443  -10.9398    0.0000 C   0  0  0  0  0  0  0  0  0  0  0  0
   -3.7294  -11.3527    0.0000 C   0  0  0  0  0  0  0  0  0  0  0  0
   -3.0130  -10.9394    0.0000 C   0  0  0  0  0  0  0  0  0  0  0  0
   -3.0159  -10.1088    0.0000 C   0  0  0  0  0  0  0  0  0  0  0  0
   -3.7312   -9.6997    0.0000 C   0  0  0  0  0  0  0  0  0  0  0  0
   -5.1577   -9.7001    0.0000 O   0  0  0  0  0  0  0  0  0  0  0  0
   -5.1579   -8.8751    0.0000 C   0  0  0  0  0  0  0  0  0  0  0  0
   -5.8724   -8.4628    0.0000 F   0  0  0  0  0  0  0  0  0  0  0  0
   -4.4435   -8.4625    0.0000 F   0  0  0  0  0  0  0  0  0  0  0  0
   -5.1625   -8.0500    0.0000 F   0  0  0  0  0  0  0  0  0  0  0  0
   -0.2486  -10.9523    0.0000 C   0  0  0  0  0  0  0  0  0  0  0  0
    0.4637  -11.3687    0.0000 N   0  0  0  0  0  0  0  0  0  0  0  0
   -0.2441  -10.1274    0.0000 O   0  0  0  0  0  0  0  0  0  0  0  0
    1.1803  -10.9600    0.0000 C   0  0  0  0  0  0  0  0  0  0  0  0
    1.8894  -11.3772    0.0000 C   0  0  0  0  0  0  0  0  0  0  0  0
    2.6056  -10.9692    0.0000 C   0  0  0  0  0  0  0  0  0  0  0  0
    2.6105  -10.1433    0.0000 C   0  0  0  0  0  0  0  0  0  0  0  0
    1.8932   -9.7272    0.0000 C   0  0  0  0  0  0  0  0  0  0  0  0
    1.1799  -10.1375    0.0000 C   0  0  0  0  0  0  0  0  0  0  0  0
    3.3176  -11.3859    0.0000 C   0  0  0  0  0  0  0  0  0  0  0  0
    1.8947   -8.9022    0.0000 C   0  0  0  0  0  0  0  0  0  0  0  0
  1  2  2  0
 13 14  1  0
  3  4  2  0
 14 15  1  0
  7  8  2  0
 14 16  1  0
 14 17  1  0
  8  9  1  0
  5 18  1  0
  4  5  1  0
 18 19  1  0
  9 10  2  0
 18 20  2  0
  2  3  1  0
 19 21  1  0
 10 11  1  0
 21 22  2  0
  5  6  2  0
 22 23  1  0
 11 12  2  0
 23 24  2  0
 12  7  1  0
 24 25  1  0
 10  1  1  0
 25 26  2  0
 26 21  1  0
  6  1  1  0
 23 27  1  0
  7 13  1  0
 25 28  1  0
M  END
> <chembl_id>
CHEMBL1271206

> <chembl_pref_name>
None

$$$$

     RDKit          2D

 22 24  0  0  0  0  0  0  0  0999 V2000
   21.2591   -1.6037    0.0000 C   0  0  0  0  0  0  0  0  0  0  0  0
   21.9711   -2.0153    0.0000 C   0  0  0  0  0  0  0  0  0  0  0  0
   22.6835   -1.6008    0.0000 N   0  0  0  0  0  0  0  0  0  0  0  0
   22.6808   -0.7749    0.0000 C   0  0  0  0  0  0  0  0  0  0  0  0
   21.9598   -0.3653    0.0000 C   0  0  0  0  0  0  0  0  0  0  0  0
   21.2503   -0.7821    0.0000 C   0  0  0  0  0  0  0  0  0  0  0  0
   17.6902   -2.0291    0.0000 C   0  0  0  0  0  0  0  0  0  0  0  0
   17.6891   -2.8565    0.0000 C   0  0  0  0  0  0  0  0  0  0  0  0
   18.4039   -3.2694    0.0000 N   0  0  0  0  0  0  0  0  0  0  0  0
   19.1203   -2.8560    0.0000 C   0  0  0  0  0  0  0  0  0  0  0  0
   19.1175   -2.0255    0.0000 C   0  0  0  0  0  0  0  0  0  0  0  0
   18.4021   -1.6164    0.0000 N   0  0  0  0  0  0  0  0  0  0  0  0
   19.8304   -1.6103    0.0000 C   0  0  0  0  0  0  0  0  0  0  0  0
   20.5464   -2.0201    0.0000 N   0  0  0  0  0  0  0  0  0  0  0  0
   19.8273   -0.7853    0.0000 O   0  0  0  0  0  0  0  0  0  0  0  0
   16.9778   -1.6170    0.0000 C   0  0  0  0  0  0  0  0  0  0  0  0
   16.9789   -0.7909    0.0000 C   0  0  0  0  0  0  0  0  0  0  0  0
   16.2652   -0.3786    0.0000 C   0  0  0  0  0  0  0  0  0  0  0  0
   15.5498   -0.7913    0.0000 C   0  0  0  0  0  0  0  0  0  0  0  0
   15.5527   -1.6206    0.0000 C   0  0  0  0  0  0  0  0  0  0  0  0
   16.2670   -2.0291    0.0000 C   0  0  0  0  0  0  0  0  0  0  0  0
   14.8347   -0.3800    0.0000 Cl  0  0  0  0  0  0  0  0  0  0  0  0
  5  6  2  0
 11 12  2  0
 12  7  1  0
  6  1  1  0
 11 13  1  0
  1  2  2  0
 13 14  1  0
  3  4  2  0
 13 15  2  0
  7  8  2  0
 16 17  2  0
  8  9  1  0
 17 18  1  0
  4  5  1  0
 18 19  2  0
  9 10  2  0
 19 20  1  0
  2  3  1  0
 20 21  2  0
 21 16  1  0
  7 16  1  0
 10 11  1  0
 19 22  1  0
 14  1  1  0
M  END
> <chembl_id>
CHEMBL1277608

> <chembl_pref_name>
None

$$$$

     RDKit          2D

 23 25  0  0  0  0  0  0  0  0999 V2000
    0.4259   -5.7326    0.0000 C   0  0  0  0  0  0  0  0  0  0  0  0
    1.1401   -6.1456    0.0000 C   0  0  0  0  0  0  0  0  0  0  0  0
    1.8524   -5.7313    0.0000 C   0  0  0  0  0  0  0  0  0  0  0  0
    1.8498   -4.9056    0.0000 N   0  0  0  0  0  0  0  0  0  0  0  0
    1.1288   -4.4961    0.0000 C   0  0  0  0  0  0  0  0  0  0  0  0
    0.4196   -4.9129    0.0000 C   0  0  0  0  0  0  0  0  0  0  0  0
   -3.8670   -4.9278    0.0000 C   0  0  0  0  0  0  0  0  0  0  0  0
   -3.8682   -5.7550    0.0000 C   0  0  0  0  0  0  0  0  0  0  0  0
   -3.1536   -6.1677    0.0000 N   0  0  0  0  0  0  0  0  0  0  0  0
   -2.4373   -5.7545    0.0000 C   0  0  0  0  0  0  0  0  0  0  0  0
   -2.4402   -4.9242    0.0000 C   0  0  0  0  0  0  0  0  0  0  0  0
   -3.1554   -4.5152    0.0000 N   0  0  0  0  0  0  0  0  0  0  0  0
   -1.7274   -4.5091    0.0000 C   0  0  0  0  0  0  0  0  0  0  0  0
   -1.0116   -4.9188    0.0000 N   0  0  0  0  0  0  0  0  0  0  0  0
   -1.7306   -3.6843    0.0000 O   0  0  0  0  0  0  0  0  0  0  0  0
   -4.5794   -4.5158    0.0000 C   0  0  0  0  0  0  0  0  0  0  0  0
   -4.5782   -3.6899    0.0000 C   0  0  0  0  0  0  0  0  0  0  0  0
   -5.2918   -3.2778    0.0000 C   0  0  0  0  0  0  0  0  0  0  0  0
   -6.0149   -3.6903    0.0000 C   0  0  0  0  0  0  0  0  0  0  0  0
   -6.0094   -4.5194    0.0000 C   0  0  0  0  0  0  0  0  0  0  0  0
   -5.2899   -4.9278    0.0000 C   0  0  0  0  0  0  0  0  0  0  0  0
   -6.7246   -3.2792    0.0000 Cl  0  0  0  0  0  0  0  0  0  0  0  0
   -0.2989   -4.5037    0.0000 C   0  0  0  0  0  0  0  0  0  0  0  0
 11 12  2  0
 12  7  1  0
  6  1  1  0
 11 13  1  0
  1  2  2  0
 13 14  1  0
  3  4  2  0
 13 15  2  0
  7  8  2  0
 16 17  2  0
  8  9  1  0
 17 18  1  0
  4  5  1  0
 18 19  2  0
  9 10  2  0
 19 20  1  0
  2  3  1  0
 20 21  2  0
 21 16  1  0
  7 16  1  0
 10 11  1  0
 19 22  1  0
  5  6  2  0
 14 23  1  0
 23  6  1  0
M  END
> <chembl_id>
CHEMBL1277699

> <chembl_pref_name>
None

$$$$

     RDKit          2D

 24 26  0  0  0  0  0  0  0  0999 V2000
   -1.6311  -15.8003    0.0000 C   0  0  0  0  0  0  0  0  0  0  0  0
   -1.6323  -16.6277    0.0000 C   0  0  0  0  0  0  0  0  0  0  0  0
   -0.9175  -17.0405    0.0000 N   0  0  0  0  0  0  0  0  0  0  0  0
   -0.2010  -16.6272    0.0000 C   0  0  0  0  0  0  0  0  0  0  0  0
   -0.2039  -15.7967    0.0000 C   0  0  0  0  0  0  0  0  0  0  0  0
   -0.9193  -15.3875    0.0000 C   0  0  0  0  0  0  0  0  0  0  0  0
   -3.7764  -14.5625    0.0000 C   0  0  0  0  0  0  0  0  0  0  0  0
   -3.7776  -15.3898    0.0000 C   0  0  0  0  0  0  0  0  0  0  0  0
   -3.0628  -15.8027    0.0000 C   0  0  0  0  0  0  0  0  0  0  0  0
   -2.3463  -15.3894    0.0000 C   0  0  0  0  0  0  0  0  0  0  0  0
   -2.3492  -14.5588    0.0000 C   0  0  0  0  0  0  0  0  0  0  0  0
   -3.0646  -14.1497    0.0000 C   0  0  0  0  0  0  0  0  0  0  0  0
    0.4181  -15.4023    0.0000 C   0  0  0  0  0  0  0  0  0  0  0  0
    1.1303  -15.8187    0.0000 N   0  0  0  0  0  0  0  0  0  0  0  0
    0.4225  -14.5774    0.0000 O   0  0  0  0  0  0  0  0  0  0  0  0
    1.8470  -15.4100    0.0000 C   0  0  0  0  0  0  0  0  0  0  0  0
    2.5561  -15.8272    0.0000 C   0  0  0  0  0  0  0  0  0  0  0  0
    3.2722  -15.4192    0.0000 C   0  0  0  0  0  0  0  0  0  0  0  0
    3.2771  -14.5933    0.0000 C   0  0  0  0  0  0  0  0  0  0  0  0
    2.5599  -14.1772    0.0000 C   0  0  0  0  0  0  0  0  0  0  0  0
    1.8466  -14.5875    0.0000 C   0  0  0  0  0  0  0  0  0  0  0  0
    3.9843  -15.8359    0.0000 C   0  0  0  0  0  0  0  0  0  0  0  0
    2.5614  -13.3522    0.0000 C   0  0  0  0  0  0  0  0  0  0  0  0
   -4.4904  -14.1506    0.0000 F   0  0  0  0  0  0  0  0  0  0  0  0
 12  7  1  0
 10  1  1  0
  6  1  1  0
  5 13  1  0
  1  2  2  0
 13 14  1  0
  3  4  2  0
 13 15  2  0
  7  8  2  0
 14 16  1  0
 16 17  2  0
  8  9  1  0
 17 18  1  0
  4  5  1  0
 18 19  2  0
  9 10  2  0
 19 20  1  0
  2  3  1  0
 20 21  2  0
 21 16  1  0
 10 11  1  0
 18 22  1  0
  5  6  2  0
 20 23  1  0
 11 12  2  0
  7 24  1  0
M  END
> <chembl_id>
CHEMBL1271415

> <chembl_pref_name>
None

$$$$

     RDKit          2D

 24 26  0  0  0  0  0  0  0  0999 V2000
    7.9231  -15.8836    0.0000 C   0  0  0  0  0  0  0  0  0  0  0  0
    7.9219  -16.7110    0.0000 C   0  0  0  0  0  0  0  0  0  0  0  0
    8.6367  -17.1239    0.0000 N   0  0  0  0  0  0  0  0  0  0  0  0
    9.3532  -16.7105    0.0000 C   0  0  0  0  0  0  0  0  0  0  0  0
    9.3503  -15.8800    0.0000 C   0  0  0  0  0  0  0  0  0  0  0  0
    8.6349  -15.4709    0.0000 C   0  0  0  0  0  0  0  0  0  0  0  0
    5.7777  -14.6458    0.0000 C   0  0  0  0  0  0  0  0  0  0  0  0
    5.7766  -15.4732    0.0000 C   0  0  0  0  0  0  0  0  0  0  0  0
    6.4914  -15.8860    0.0000 C   0  0  0  0  0  0  0  0  0  0  0  0
    7.2078  -15.4727    0.0000 C   0  0  0  0  0  0  0  0  0  0  0  0
    7.2050  -14.6422    0.0000 C   0  0  0  0  0  0  0  0  0  0  0  0
    6.4896  -14.2330    0.0000 C   0  0  0  0  0  0  0  0  0  0  0  0
    9.9723  -15.4857    0.0000 C   0  0  0  0  0  0  0  0  0  0  0  0
   10.6845  -15.9020    0.0000 N   0  0  0  0  0  0  0  0  0  0  0  0
    9.9767  -14.6607    0.0000 O   0  0  0  0  0  0  0  0  0  0  0  0
   11.4012  -15.4933    0.0000 C   0  0  0  0  0  0  0  0  0  0  0  0
   12.1102  -15.9105    0.0000 C   0  0  0  0  0  0  0  0  0  0  0  0
   12.8264  -15.5025    0.0000 C   0  0  0  0  0  0  0  0  0  0  0  0
   12.8313  -14.6767    0.0000 C   0  0  0  0  0  0  0  0  0  0  0  0
   12.1140  -14.2605    0.0000 C   0  0  0  0  0  0  0  0  0  0  0  0
   11.4008  -14.6708    0.0000 C   0  0  0  0  0  0  0  0  0  0  0  0
   13.5385  -15.9192    0.0000 C   0  0  0  0  0  0  0  0  0  0  0  0
   12.1155  -13.4355    0.0000 C   0  0  0  0  0  0  0  0  0  0  0  0
    5.0637  -14.2340    0.0000 Cl  0  0  0  0  0  0  0  0  0  0  0  0
 12  7  1  0
 10  1  1  0
  6  1  1  0
  5 13  1  0
  1  2  2  0
 13 14  1  0
  3  4  2  0
 13 15  2  0
  7  8  2  0
 14 16  1  0
 16 17  2  0
  8  9  1  0
 17 18  1  0
  4  5  1  0
 18 19  2  0
  9 10  2  0
 19 20  1  0
  2  3  1  0
 20 21  2  0
 21 16  1  0
 10 11  1  0
 18 22  1  0
  5  6  2  0
 20 23  1  0
 11 12  2  0
  7 24  1  0
M  END
> <chembl_id>
CHEMBL1271416

> <chembl_pref_name>
None

$$$$

     RDKit          2D

 27 29  0  0  0  0  0  0  0  0999 V2000
   -4.5181   -6.3750    0.0000 C   0  0  0  0  0  0  0  0  0  0  0  0
   -4.5193   -7.2023    0.0000 C   0  0  0  0  0  0  0  0  0  0  0  0
   -3.8044   -7.6152    0.0000 C   0  0  0  0  0  0  0  0  0  0  0  0
   -3.0880   -7.2019    0.0000 C   0  0  0  0  0  0  0  0  0  0  0  0
   -3.0909   -6.3713    0.0000 C   0  0  0  0  0  0  0  0  0  0  0  0
   -3.8062   -5.9622    0.0000 C   0  0  0  0  0  0  0  0  0  0  0  0
   -2.3728   -7.6128    0.0000 C   0  0  0  0  0  0  0  0  0  0  0  0
   -2.1253   -8.4021    0.0000 S   0  0  0  0  0  0  0  0  0  0  0  0
   -1.3003   -8.4069    0.0000 N   0  0  0  0  0  0  0  0  0  0  0  0
   -1.0402   -7.6235    0.0000 C   0  0  0  0  0  0  0  0  0  0  0  0
   -1.7055   -7.1351    0.0000 N   0  0  0  0  0  0  0  0  0  0  0  0
   -0.3236   -7.2148    0.0000 C   0  0  0  0  0  0  0  0  0  0  0  0
    0.3887   -7.6312    0.0000 N   0  0  0  0  0  0  0  0  0  0  0  0
   -0.3191   -6.3899    0.0000 O   0  0  0  0  0  0  0  0  0  0  0  0
    1.1053   -7.2225    0.0000 C   0  0  0  0  0  0  0  0  0  0  0  0
    1.8144   -7.6397    0.0000 C   0  0  0  0  0  0  0  0  0  0  0  0
    2.5306   -7.2317    0.0000 C   0  0  0  0  0  0  0  0  0  0  0  0
    2.5355   -6.4058    0.0000 C   0  0  0  0  0  0  0  0  0  0  0  0
    1.8182   -5.9897    0.0000 C   0  0  0  0  0  0  0  0  0  0  0  0
    1.1049   -6.4000    0.0000 C   0  0  0  0  0  0  0  0  0  0  0  0
    3.2426   -7.6484    0.0000 C   0  0  0  0  0  0  0  0  0  0  0  0
    1.8197   -5.1647    0.0000 C   0  0  0  0  0  0  0  0  0  0  0  0
   -5.2327   -5.9626    0.0000 O   0  0  0  0  0  0  0  0  0  0  0  0
   -5.2329   -5.1376    0.0000 C   0  0  0  0  0  0  0  0  0  0  0  0
   -5.9474   -4.7253    0.0000 F   0  0  0  0  0  0  0  0  0  0  0  0
   -4.5185   -4.7250    0.0000 F   0  0  0  0  0  0  0  0  0  0  0  0
   -5.2375   -4.3125    0.0000 F   0  0  0  0  0  0  0  0  0  0  0  0
 12 13  1  0
  1  2  2  0
 12 14  2  0
  4  7  1  0
 13 15  1  0
  7  8  1  0
 15 16  2  0
  3  4  2  0
 16 17  1  0
 17 18  2  0
  4  5  1  0
 18 19  1  0
  2  3  1  0
 19 20  2  0
 20 15  1  0
  8  9  1  0
 17 21  1  0
  9 10  2  0
 19 22  1  0
 10 11  1  0
  1 23  1  0
 11  7  2  0
 23 24  1  0
  5  6  2  0
 24 25  1  0
 10 12  1  0
 24 26  1  0
  6  1  1  0
 24 27  1  0
M  END
> <chembl_id>
CHEMBL1271105

> <chembl_pref_name>
None

$$$$

     RDKit          2D

 22 24  0  0  0  0  0  0  0  0999 V2000
   -2.2246    1.2083    0.0000 C   0  0  0  0  0  0  0  0  0  0  0  0
   -1.4750    0.8621    0.0000 O   0  0  0  0  0  0  0  0  0  0  0  0
   -0.9128    1.4668    0.0000 C   0  0  0  0  0  0  0  0  0  0  0  0
   -1.3166    2.1899    0.0000 C   0  0  0  0  0  0  0  0  0  0  0  0
   -2.1250    2.0265    0.0000 C   0  0  0  0  0  0  0  0  0  0  0  0
   -2.9448    0.8059    0.0000 C   0  0  0  0  0  0  0  0  0  0  0  0
   -3.6538    1.2310    0.0000 C   0  0  0  0  0  0  0  0  0  0  0  0
   -4.3744    0.8296    0.0000 C   0  0  0  0  0  0  0  0  0  0  0  0
   -4.3872    0.0033    0.0000 C   0  0  0  0  0  0  0  0  0  0  0  0
   -3.6734   -0.4201    0.0000 C   0  0  0  0  0  0  0  0  0  0  0  0
   -2.9558   -0.0163    0.0000 C   0  0  0  0  0  0  0  0  0  0  0  0
   -0.0931    1.3682    0.0000 C   0  0  0  0  0  0  0  0  0  0  0  0
    0.2314    0.6090    0.0000 O   0  0  0  0  0  0  0  0  0  0  0  0
    0.4022    2.0287    0.0000 N   0  0  0  0  0  0  0  0  0  0  0  0
    1.2219    1.9301    0.0000 C   0  0  0  0  0  0  0  0  0  0  0  0
    1.5417    1.1721    0.0000 C   0  0  0  0  0  0  0  0  0  0  0  0
    2.3606    1.0733    0.0000 C   0  0  0  0  0  0  0  0  0  0  0  0
    2.8567    1.7342    0.0000 C   0  0  0  0  0  0  0  0  0  0  0  0
    2.5282    2.4963    0.0000 C   0  0  0  0  0  0  0  0  0  0  0  0
    1.7103    2.5916    0.0000 C   0  0  0  0  0  0  0  0  0  0  0  0
    2.6846    0.3139    0.0000 C   0  0  0  0  0  0  0  0  0  0  0  0
   -5.1078   -0.3998    0.0000 Cl  0  0  0  0  0  0  0  0  0  0  0  0
 11  6  1  0
  1  6  1  0
  1  2  1  0
  3 12  1  0
 12 13  2  0
  6  7  2  0
 12 14  1  0
  2  3  1  0
 14 15  1  0
  7  8  1  0
 15 16  2  0
  3  4  2  0
 16 17  1  0
  8  9  2  0
 17 18  2  0
  4  5  1  0
 18 19  1  0
  9 10  1  0
 19 20  2  0
 20 15  1  0
  5  1  2  0
 17 21  1  0
 10 11  2  0
  9 22  1  0
M  END
> <chembl_id>
CHEMBL429663

> <chembl_pref_name>
None

$$$$

     RDKit          2D

 24 26  0  0  0  0  0  0  0  0999 V2000
   17.4902    1.1584    0.0000 C   0  0  0  0  0  0  0  0  0  0  0  0
   17.4891    0.3310    0.0000 C   0  0  0  0  0  0  0  0  0  0  0  0
   18.2039   -0.0819    0.0000 N   0  0  0  0  0  0  0  0  0  0  0  0
   18.9203    0.3315    0.0000 C   0  0  0  0  0  0  0  0  0  0  0  0
   18.9175    1.1620    0.0000 C   0  0  0  0  0  0  0  0  0  0  0  0
   18.2021    1.5711    0.0000 N   0  0  0  0  0  0  0  0  0  0  0  0
   19.6304    1.5772    0.0000 C   0  0  0  0  0  0  0  0  0  0  0  0
   20.3464    1.1674    0.0000 N   0  0  0  0  0  0  0  0  0  0  0  0
   21.0593    1.5826    0.0000 C   0  0  0  0  0  0  0  0  0  0  0  0
   19.6273    2.4022    0.0000 O   0  0  0  0  0  0  0  0  0  0  0  0
   16.7778    1.5705    0.0000 C   0  0  0  0  0  0  0  0  0  0  0  0
   16.7789    2.3966    0.0000 C   0  0  0  0  0  0  0  0  0  0  0  0
   16.0652    2.8089    0.0000 C   0  0  0  0  0  0  0  0  0  0  0  0
   15.3498    2.3962    0.0000 C   0  0  0  0  0  0  0  0  0  0  0  0
   15.3527    1.5669    0.0000 C   0  0  0  0  0  0  0  0  0  0  0  0
   16.0670    1.1584    0.0000 C   0  0  0  0  0  0  0  0  0  0  0  0
   14.6347    2.8075    0.0000 Cl  0  0  0  0  0  0  0  0  0  0  0  0
   21.7737    1.1693    0.0000 C   0  0  0  0  0  0  0  0  0  0  0  0
   22.4862    1.5838    0.0000 C   0  0  0  0  0  0  0  0  0  0  0  0
   22.4835    2.4097    0.0000 C   0  0  0  0  0  0  0  0  0  0  0  0
   21.7625    2.8193    0.0000 C   0  0  0  0  0  0  0  0  0  0  0  0
   21.0530    2.4025    0.0000 C   0  0  0  0  0  0  0  0  0  0  0  0
   23.2020    1.1737    0.0000 C   0  0  0  0  0  0  0  0  0  0  0  0
   21.7564    3.6443    0.0000 C   0  0  0  0  0  0  0  0  0  0  0  0
  6  1  1  0
 12 13  1  0
  1  2  2  0
 13 14  2  0
  5  7  1  0
 14 15  1  0
  3  4  2  0
 15 16  2  0
 16 11  1  0
  1 11  1  0
  7  8  1  0
 14 17  1  0
  9 18  2  0
  8  9  1  0
 18 19  1  0
  4  5  1  0
 19 20  2  0
  7 10  2  0
 20 21  1  0
  2  3  1  0
 21 22  2  0
 22  9  1  0
  5  6  2  0
 19 23  1  0
 11 12  2  0
 21 24  1  0
M  END
> <chembl_id>
CHEMBL1277514

> <chembl_pref_name>
None

$$$$

     RDKit          2D

 28 30  0  0  0  0  0  0  0  0999 V2000
    7.1147   -7.7420    0.0000 C   0  0  0  0  0  0  0  0  0  0  0  0
    7.1136   -8.5693    0.0000 C   0  0  0  0  0  0  0  0  0  0  0  0
    7.8284   -8.9822    0.0000 N   0  0  0  0  0  0  0  0  0  0  0  0
    8.5448   -8.5688    0.0000 C   0  0  0  0  0  0  0  0  0  0  0  0
    8.5420   -7.7383    0.0000 C   0  0  0  0  0  0  0  0  0  0  0  0
    7.8266   -7.3292    0.0000 N   0  0  0  0  0  0  0  0  0  0  0  0
    4.9694   -6.5041    0.0000 C   0  0  0  0  0  0  0  0  0  0  0  0
    4.9682   -7.3315    0.0000 C   0  0  0  0  0  0  0  0  0  0  0  0
    5.6831   -7.7444    0.0000 C   0  0  0  0  0  0  0  0  0  0  0  0
    6.3995   -7.3310    0.0000 C   0  0  0  0  0  0  0  0  0  0  0  0
    6.3966   -6.5005    0.0000 C   0  0  0  0  0  0  0  0  0  0  0  0
    5.6813   -6.0914    0.0000 C   0  0  0  0  0  0  0  0  0  0  0  0
    4.2548   -6.0918    0.0000 O   0  0  0  0  0  0  0  0  0  0  0  0
    4.2546   -5.2668    0.0000 C   0  0  0  0  0  0  0  0  0  0  0  0
    3.5401   -4.8545    0.0000 F   0  0  0  0  0  0  0  0  0  0  0  0
    4.9690   -4.8541    0.0000 F   0  0  0  0  0  0  0  0  0  0  0  0
    4.2500   -4.4417    0.0000 F   0  0  0  0  0  0  0  0  0  0  0  0
    9.1639   -7.3440    0.0000 C   0  0  0  0  0  0  0  0  0  0  0  0
    9.8762   -7.7603    0.0000 N   0  0  0  0  0  0  0  0  0  0  0  0
    9.1684   -6.5190    0.0000 O   0  0  0  0  0  0  0  0  0  0  0  0
   10.5928   -7.3517    0.0000 C   0  0  0  0  0  0  0  0  0  0  0  0
   11.3019   -7.7689    0.0000 C   0  0  0  0  0  0  0  0  0  0  0  0
   12.0181   -7.3609    0.0000 C   0  0  0  0  0  0  0  0  0  0  0  0
   12.0230   -6.5350    0.0000 C   0  0  0  0  0  0  0  0  0  0  0  0
   11.3057   -6.1188    0.0000 C   0  0  0  0  0  0  0  0  0  0  0  0
   10.5924   -6.5292    0.0000 C   0  0  0  0  0  0  0  0  0  0  0  0
   12.7301   -7.7775    0.0000 C   0  0  0  0  0  0  0  0  0  0  0  0
   11.3072   -5.2938    0.0000 C   0  0  0  0  0  0  0  0  0  0  0  0
  1  2  2  0
 13 14  1  0
  3  4  2  0
 14 15  1  0
  7  8  2  0
 14 16  1  0
 14 17  1  0
  8  9  1  0
  5 18  1  0
  4  5  1  0
 18 19  1  0
  9 10  2  0
 18 20  2  0
  2  3  1  0
 19 21  1  0
 10 11  1  0
 21 22  2  0
  5  6  2  0
 22 23  1  0
 11 12  2  0
 23 24  2  0
 12  7  1  0
 24 25  1  0
 10  1  1  0
 25 26  2  0
 26 21  1  0
  6  1  1  0
 23 27  1  0
  7 13  1  0
 25 28  1  0
M  END
> <chembl_id>
CHEMBL1271106

> <chembl_pref_name>
None

$$$$

     RDKit          2D

 23 25  0  0  0  0  0  0  0  0999 V2000
   10.1268   -9.4037    0.0000 C   0  0  0  0  0  0  0  0  0  0  0  0
   10.8769   -9.7482    0.0000 O   0  0  0  0  0  0  0  0  0  0  0  0
   11.4406   -9.1422    0.0000 C   0  0  0  0  0  0  0  0  0  0  0  0
   11.0345   -8.4228    0.0000 C   0  0  0  0  0  0  0  0  0  0  0  0
   10.2258   -8.5852    0.0000 C   0  0  0  0  0  0  0  0  0  0  0  0
    9.4059   -9.8041    0.0000 C   0  0  0  0  0  0  0  0  0  0  0  0
    8.6961   -9.3811    0.0000 C   0  0  0  0  0  0  0  0  0  0  0  0
    7.9791   -9.7805    0.0000 C   0  0  0  0  0  0  0  0  0  0  0  0
    7.9663  -10.6070    0.0000 C   0  0  0  0  0  0  0  0  0  0  0  0
    8.6766  -11.0325    0.0000 C   0  0  0  0  0  0  0  0  0  0  0  0
    9.3949  -10.6265    0.0000 C   0  0  0  0  0  0  0  0  0  0  0  0
   12.2605   -9.2446    0.0000 C   0  0  0  0  0  0  0  0  0  0  0  0
   12.5832  -10.0000    0.0000 O   0  0  0  0  0  0  0  0  0  0  0  0
   12.7533   -8.5830    0.0000 N   0  0  0  0  0  0  0  0  0  0  0  0
   13.5732   -8.6812    0.0000 C   0  0  0  0  0  0  0  0  0  0  0  0
   13.8956   -9.4397    0.0000 C   0  0  0  0  0  0  0  0  0  0  0  0
   14.7147   -9.5380    0.0000 C   0  0  0  0  0  0  0  0  0  0  0  0
   15.2085   -8.8761    0.0000 C   0  0  0  0  0  0  0  0  0  0  0  0
   14.8815   -8.1135    0.0000 C   0  0  0  0  0  0  0  0  0  0  0  0
   14.0634   -8.0188    0.0000 C   0  0  0  0  0  0  0  0  0  0  0  0
   15.0372  -10.2979    0.0000 C   0  0  0  0  0  0  0  0  0  0  0  0
    8.6706  -11.8549    0.0000 C   0  0  0  0  0  0  0  0  0  0  0  0
    8.6613  -12.6805    0.0000 N   0  0  0  0  0  0  0  0  0  0  0  0
  1  6  1  0
  1  2  1  0
  3 12  1  0
 12 13  2  0
  6  7  2  0
 12 14  1  0
  2  3  1  0
 14 15  1  0
  7  8  1  0
 15 16  2  0
  3  4  2  0
 16 17  1  0
  8  9  2  0
 17 18  2  0
  4  5  1  0
 18 19  1  0
  9 10  1  0
 19 20  2  0
 20 15  1  0
  5  1  2  0
 17 21  1  0
 10 11  2  0
 11  6  1  0
 22 23  3  0
 10 22  1  0
M  END
> <chembl_id>
CHEMBL254382

> <chembl_pref_name>
None

$$$$

     RDKit          2D

 22 24  0  0  0  0  0  0  0  0999 V2000
   -3.6484   -8.3248    0.0000 C   0  0  0  0  0  0  0  0  0  0  0  0
   -2.8211   -8.3191    0.0000 C   0  0  0  0  0  0  0  0  0  0  0  0
   -2.4141   -7.6009    0.0000 C   0  0  0  0  0  0  0  0  0  0  0  0
   -2.8334   -6.8879    0.0000 C   0  0  0  0  0  0  0  0  0  0  0  0
   -3.6639   -6.8976    0.0000 C   0  0  0  0  0  0  0  0  0  0  0  0
   -4.0671   -7.6164    0.0000 C   0  0  0  0  0  0  0  0  0  0  0  0
   -4.8920   -7.6257    0.0000 Cl  0  0  0  0  0  0  0  0  0  0  0  0
   -1.5892   -7.5942    0.0000 C   0  0  0  0  0  0  0  0  0  0  0  0
   -1.0962   -8.2564    0.0000 C   0  0  0  0  0  0  0  0  0  0  0  0
   -0.3137   -7.9951    0.0000 C   0  0  0  0  0  0  0  0  0  0  0  0
   -0.3203   -7.1701    0.0000 C   0  0  0  0  0  0  0  0  0  0  0  0
   -1.1070   -6.9216    0.0000 O   0  0  0  0  0  0  0  0  0  0  0  0
    0.3888   -6.7565    0.0000 C   0  0  0  0  0  0  0  0  0  0  0  0
    1.1051   -7.1658    0.0000 N   0  0  0  0  0  0  0  0  0  0  0  0
    0.3851   -5.9315    0.0000 O   0  0  0  0  0  0  0  0  0  0  0  0
    1.1087   -7.9908    0.0000 C   0  0  0  0  0  0  0  0  0  0  0  0
    0.3972   -8.4030    0.0000 C   0  0  0  0  0  0  0  0  0  0  0  0
    0.3989   -9.2244    0.0000 C   0  0  0  0  0  0  0  0  0  0  0  0
    1.1133   -9.6376    0.0000 N   0  0  0  0  0  0  0  0  0  0  0  0
    1.8278   -9.2232    0.0000 C   0  0  0  0  0  0  0  0  0  0  0  0
    1.8278   -8.3955    0.0000 C   0  0  0  0  0  0  0  0  0  0  0  0
    1.1139  -10.4626    0.0000 C   0  0  0  0  0  0  0  0  0  0  0  0
  9 10  1  0
 10 11  2  0
 11 12  1  0
 12  8  1  0
  6  1  1  0
 11 13  1  0
  1  2  2  0
 13 14  1  0
  6  7  1  0
 13 15  2  0
  3  4  2  0
 14 16  1  0
 16 17  1  0
  3  8  1  0
  8  9  2  0
  4  5  1  0
  2  3  1  0
 16 21  1  0
 17 18  1  0
 18 19  1  0
 19 20  1  0
 20 21  1  0
  5  6  2  0
 19 22  1  0
M  END
> <chembl_id>
CHEMBL487308

> <chembl_pref_name>
None

$$$$

     RDKit          2D

 24 26  0  0  0  0  0  0  0  0999 V2000
   -1.9047  -11.6207    0.0000 C   0  0  0  0  0  0  0  0  0  0  0  0
   -1.1502  -11.2871    0.0000 O   0  0  0  0  0  0  0  0  0  0  0  0
   -0.5982  -11.9004    0.0000 C   0  0  0  0  0  0  0  0  0  0  0  0
   -1.0135  -12.6162    0.0000 C   0  0  0  0  0  0  0  0  0  0  0  0
   -1.8186  -12.4400    0.0000 C   0  0  0  0  0  0  0  0  0  0  0  0
   -2.6178  -11.2070    0.0000 C   0  0  0  0  0  0  0  0  0  0  0  0
   -3.3331  -11.6203    0.0000 C   0  0  0  0  0  0  0  0  0  0  0  0
   -4.0466  -11.2076    0.0000 C   0  0  0  0  0  0  0  0  0  0  0  0
   -4.0460  -10.3817    0.0000 C   0  0  0  0  0  0  0  0  0  0  0  0
   -3.3260   -9.9703    0.0000 C   0  0  0  0  0  0  0  0  0  0  0  0
   -2.6155  -10.3854    0.0000 C   0  0  0  0  0  0  0  0  0  0  0  0
    0.2224  -11.8152    0.0000 C   0  0  0  0  0  0  0  0  0  0  0  0
    0.5588  -11.0619    0.0000 O   0  0  0  0  0  0  0  0  0  0  0  0
    0.7065  -12.4832    0.0000 N   0  0  0  0  0  0  0  0  0  0  0  0
    1.5271  -12.3979    0.0000 C   0  0  0  0  0  0  0  0  0  0  0  0
    1.8590  -11.6458    0.0000 C   0  0  0  0  0  0  0  0  0  0  0  0
    2.6788  -11.5603    0.0000 C   0  0  0  0  0  0  0  0  0  0  0  0
    3.1638  -12.2287    0.0000 C   0  0  0  0  0  0  0  0  0  0  0  0
    2.8232  -12.9848    0.0000 C   0  0  0  0  0  0  0  0  0  0  0  0
    2.0044  -13.0667    0.0000 C   0  0  0  0  0  0  0  0  0  0  0  0
   -4.7594   -9.9673    0.0000 Cl  0  0  0  0  0  0  0  0  0  0  0  0
    3.0149  -10.8068    0.0000 C   0  0  0  0  0  0  0  0  0  0  0  0
    3.8354  -10.7212    0.0000 C   0  0  0  0  0  0  0  0  0  0  0  0
    4.6536  -10.6354    0.0000 N   0  0  0  0  0  0  0  0  0  0  0  0
  1  2  1  0
  3 12  1  0
 12 13  2  0
  6  7  2  0
 12 14  1  0
  2  3  1  0
 14 15  1  0
  7  8  1  0
 15 16  2  0
  3  4  2  0
 16 17  1  0
  8  9  2  0
 17 18  2  0
  4  5  1  0
 18 19  1  0
  9 10  1  0
 19 20  2  0
 20 15  1  0
  5  1  2  0
  9 21  1  0
 10 11  2  0
 17 22  1  0
 11  6  1  0
 22 23  1  0
  1  6  1  0
 23 24  3  0
M  END
> <chembl_id>
CHEMBL400769

> <chembl_pref_name>
None

$$$$

     RDKit          2D

 28 30  0  0  0  0  0  0  0  0999 V2000
   13.8983  -22.6180    0.0000 C   0  0  0  0  0  0  0  0  0  0  0  0
   14.6128  -23.0312    0.0000 C   0  0  0  0  0  0  0  0  0  0  0  0
   15.3252  -22.6167    0.0000 C   0  0  0  0  0  0  0  0  0  0  0  0
   15.3225  -21.7908    0.0000 C   0  0  0  0  0  0  0  0  0  0  0  0
   14.6015  -21.3812    0.0000 C   0  0  0  0  0  0  0  0  0  0  0  0
   13.8920  -21.7981    0.0000 C   0  0  0  0  0  0  0  0  0  0  0  0
   14.5955  -20.5562    0.0000 C   0  0  0  0  0  0  0  0  0  0  0  0
    9.6069  -21.8125    0.0000 C   0  0  0  0  0  0  0  0  0  0  0  0
    9.6057  -22.6398    0.0000 C   0  0  0  0  0  0  0  0  0  0  0  0
   10.3206  -23.0527    0.0000 N   0  0  0  0  0  0  0  0  0  0  0  0
   11.0370  -22.6394    0.0000 C   0  0  0  0  0  0  0  0  0  0  0  0
   11.0341  -21.8088    0.0000 C   0  0  0  0  0  0  0  0  0  0  0  0
   10.3188  -21.3997    0.0000 N   0  0  0  0  0  0  0  0  0  0  0  0
   11.7471  -21.3936    0.0000 C   0  0  0  0  0  0  0  0  0  0  0  0
   12.4631  -21.8034    0.0000 N   0  0  0  0  0  0  0  0  0  0  0  0
   11.7439  -20.5686    0.0000 O   0  0  0  0  0  0  0  0  0  0  0  0
    8.8944  -21.4003    0.0000 C   0  0  0  0  0  0  0  0  0  0  0  0
    8.8956  -20.5742    0.0000 C   0  0  0  0  0  0  0  0  0  0  0  0
    8.1818  -20.1619    0.0000 C   0  0  0  0  0  0  0  0  0  0  0  0
    7.4665  -20.5747    0.0000 C   0  0  0  0  0  0  0  0  0  0  0  0
    7.4693  -21.4039    0.0000 C   0  0  0  0  0  0  0  0  0  0  0  0
    8.1837  -21.8124    0.0000 C   0  0  0  0  0  0  0  0  0  0  0  0
    6.7514  -20.1633    0.0000 O   0  0  0  0  0  0  0  0  0  0  0  0
    6.0375  -20.5769    0.0000 C   0  0  0  0  0  0  0  0  0  0  0  0
    6.0388  -21.4019    0.0000 F   0  0  0  0  0  0  0  0  0  0  0  0
    5.3224  -20.1655    0.0000 F   0  0  0  0  0  0  0  0  0  0  0  0
    5.3208  -20.9833    0.0000 F   0  0  0  0  0  0  0  0  0  0  0  0
   13.1760  -21.3883    0.0000 C   0  0  0  0  0  0  0  0  0  0  0  0
 12 14  1  0
  5  7  1  0
 14 15  1  0
  3  4  2  0
 14 16  2  0
  8  9  2  0
 17 18  2  0
  4  5  1  0
 18 19  1  0
  9 10  1  0
 19 20  2  0
  2  3  1  0
 20 21  1  0
 10 11  2  0
 21 22  2  0
 22 17  1  0
  8 17  1  0
  5  6  2  0
 20 23  1  0
 11 12  1  0
 23 24  1  0
  6  1  1  0
 24 25  1  0
 12 13  2  0
 24 26  1  0
 13  8  1  0
 24 27  1  0
  1  2  2  0
 15 28  1  0
 28  6  1  0
M  END
> <chembl_id>
CHEMBL1278224

> <chembl_pref_name>
None

$$$$

     RDKit          2D

 27 29  0  0  0  0  0  0  0  0999 V2000
   -4.2889   -2.5541    0.0000 C   0  0  0  0  0  0  0  0  0  0  0  0
   -4.2901   -3.3815    0.0000 C   0  0  0  0  0  0  0  0  0  0  0  0
   -3.5753   -3.7944    0.0000 C   0  0  0  0  0  0  0  0  0  0  0  0
   -2.8588   -3.3810    0.0000 C   0  0  0  0  0  0  0  0  0  0  0  0
   -2.8617   -2.5505    0.0000 C   0  0  0  0  0  0  0  0  0  0  0  0
   -3.5771   -2.1414    0.0000 C   0  0  0  0  0  0  0  0  0  0  0  0
   -2.1436   -3.7920    0.0000 C   0  0  0  0  0  0  0  0  0  0  0  0
   -1.8962   -4.5813    0.0000 O   0  0  0  0  0  0  0  0  0  0  0  0
   -1.0712   -4.5861    0.0000 C   0  0  0  0  0  0  0  0  0  0  0  0
   -0.8111   -3.8027    0.0000 C   0  0  0  0  0  0  0  0  0  0  0  0
   -1.4763   -3.3142    0.0000 N   0  0  0  0  0  0  0  0  0  0  0  0
   -0.0944   -3.3940    0.0000 C   0  0  0  0  0  0  0  0  0  0  0  0
    0.6178   -3.8103    0.0000 N   0  0  0  0  0  0  0  0  0  0  0  0
   -0.0900   -2.5690    0.0000 O   0  0  0  0  0  0  0  0  0  0  0  0
    1.3345   -3.4017    0.0000 C   0  0  0  0  0  0  0  0  0  0  0  0
    2.0436   -3.8189    0.0000 C   0  0  0  0  0  0  0  0  0  0  0  0
    2.7597   -3.4109    0.0000 C   0  0  0  0  0  0  0  0  0  0  0  0
    2.7646   -2.5850    0.0000 C   0  0  0  0  0  0  0  0  0  0  0  0
    2.0474   -2.1688    0.0000 C   0  0  0  0  0  0  0  0  0  0  0  0
    1.3341   -2.5792    0.0000 C   0  0  0  0  0  0  0  0  0  0  0  0
    3.4718   -3.8275    0.0000 C   0  0  0  0  0  0  0  0  0  0  0  0
    2.0489   -1.3438    0.0000 C   0  0  0  0  0  0  0  0  0  0  0  0
   -5.0035   -2.1418    0.0000 O   0  0  0  0  0  0  0  0  0  0  0  0
   -5.0037   -1.3168    0.0000 C   0  0  0  0  0  0  0  0  0  0  0  0
   -5.7183   -0.9045    0.0000 F   0  0  0  0  0  0  0  0  0  0  0  0
   -4.2893   -0.9041    0.0000 F   0  0  0  0  0  0  0  0  0  0  0  0
   -5.0083   -0.4917    0.0000 F   0  0  0  0  0  0  0  0  0  0  0  0
 12 13  1  0
  1  2  2  0
 12 14  2  0
  4  7  1  0
 13 15  1  0
  7  8  1  0
 15 16  2  0
  3  4  2  0
 16 17  1  0
 17 18  2  0
  4  5  1  0
 18 19  1  0
  2  3  1  0
 19 20  2  0
 20 15  1  0
  8  9  1  0
 17 21  1  0
  9 10  2  0
 19 22  1  0
 10 11  1  0
  1 23  1  0
 11  7  2  0
 23 24  1  0
  5  6  2  0
 24 25  1  0
 10 12  1  0
 24 26  1  0
  6  1  1  0
 24 27  1  0
M  END
> <chembl_id>
CHEMBL1270899

> <chembl_pref_name>
None

$$$$

     RDKit          2D

 25 27  0  0  0  0  0  0  0  0999 V2000
   13.0164  -18.6780    0.0000 C   0  0  0  0  0  0  0  0  0  0  0  0
   13.7307  -19.0913    0.0000 C   0  0  0  0  0  0  0  0  0  0  0  0
   14.4431  -18.6768    0.0000 C   0  0  0  0  0  0  0  0  0  0  0  0
   14.4404  -17.8510    0.0000 C   0  0  0  0  0  0  0  0  0  0  0  0
   13.7194  -17.4415    0.0000 C   0  0  0  0  0  0  0  0  0  0  0  0
   13.0100  -17.8582    0.0000 C   0  0  0  0  0  0  0  0  0  0  0  0
   13.7134  -16.6165    0.0000 C   0  0  0  0  0  0  0  0  0  0  0  0
    8.7227  -17.8732    0.0000 C   0  0  0  0  0  0  0  0  0  0  0  0
    8.7215  -18.7004    0.0000 C   0  0  0  0  0  0  0  0  0  0  0  0
    9.4363  -19.1133    0.0000 N   0  0  0  0  0  0  0  0  0  0  0  0
   10.1527  -18.7000    0.0000 C   0  0  0  0  0  0  0  0  0  0  0  0
   10.1498  -17.8695    0.0000 C   0  0  0  0  0  0  0  0  0  0  0  0
    9.4345  -17.4605    0.0000 N   0  0  0  0  0  0  0  0  0  0  0  0
   10.8626  -17.4544    0.0000 C   0  0  0  0  0  0  0  0  0  0  0  0
   11.5785  -17.8641    0.0000 N   0  0  0  0  0  0  0  0  0  0  0  0
   10.8595  -16.6294    0.0000 O   0  0  0  0  0  0  0  0  0  0  0  0
    8.0103  -17.4611    0.0000 C   0  0  0  0  0  0  0  0  0  0  0  0
    8.0114  -16.6350    0.0000 C   0  0  0  0  0  0  0  0  0  0  0  0
    7.2978  -16.2228    0.0000 C   0  0  0  0  0  0  0  0  0  0  0  0
    6.5825  -16.6355    0.0000 C   0  0  0  0  0  0  0  0  0  0  0  0
    6.5853  -17.4647    0.0000 C   0  0  0  0  0  0  0  0  0  0  0  0
    7.2996  -17.8731    0.0000 C   0  0  0  0  0  0  0  0  0  0  0  0
    5.8674  -16.2242    0.0000 C   0  0  0  0  0  0  0  0  0  0  0  0
   12.2915  -17.4491    0.0000 C   0  0  0  0  0  0  0  0  0  0  0  0
    5.1495  -15.8109    0.0000 N   0  0  0  0  0  0  0  0  0  0  0  0
 12 13  2  0
 13  8  1  0
  1  2  2  0
 12 14  1  0
  5  7  1  0
 14 15  1  0
  3  4  2  0
 14 16  2  0
  8  9  2  0
 17 18  2  0
  4  5  1  0
 18 19  1  0
  9 10  1  0
 19 20  2  0
  2  3  1  0
 20 21  1  0
 10 11  2  0
 21 22  2  0
 22 17  1  0
  8 17  1  0
  5  6  2  0
 20 23  1  0
 11 12  1  0
 15 24  1  0
 24  6  1  0
  6  1  1  0
 23 25  3  0
M  END
> <chembl_id>
CHEMBL1278138

> <chembl_pref_name>
None

$$$$

     RDKit          2D

 27 29  0  0  0  0  0  0  0  0999 V2000
    4.3194   -2.7416    0.0000 C   0  0  0  0  0  0  0  0  0  0  0  0
    4.3182   -3.5690    0.0000 C   0  0  0  0  0  0  0  0  0  0  0  0
    5.0331   -3.9819    0.0000 C   0  0  0  0  0  0  0  0  0  0  0  0
    5.7495   -3.5685    0.0000 C   0  0  0  0  0  0  0  0  0  0  0  0
    5.7466   -2.7380    0.0000 C   0  0  0  0  0  0  0  0  0  0  0  0
    5.0313   -2.3289    0.0000 C   0  0  0  0  0  0  0  0  0  0  0  0
    6.4647   -3.9795    0.0000 C   0  0  0  0  0  0  0  0  0  0  0  0
    6.7122   -4.7688    0.0000 N   0  0  0  0  0  0  0  0  0  0  0  0
    7.5372   -4.7736    0.0000 O   0  0  0  0  0  0  0  0  0  0  0  0
    7.7973   -3.9902    0.0000 C   0  0  0  0  0  0  0  0  0  0  0  0
    7.1320   -3.5017    0.0000 N   0  0  0  0  0  0  0  0  0  0  0  0
    8.5139   -3.5815    0.0000 C   0  0  0  0  0  0  0  0  0  0  0  0
    9.2262   -3.9978    0.0000 N   0  0  0  0  0  0  0  0  0  0  0  0
    8.5184   -2.7565    0.0000 O   0  0  0  0  0  0  0  0  0  0  0  0
    9.9428   -3.5892    0.0000 C   0  0  0  0  0  0  0  0  0  0  0  0
   10.6519   -4.0064    0.0000 C   0  0  0  0  0  0  0  0  0  0  0  0
   11.3681   -3.5984    0.0000 C   0  0  0  0  0  0  0  0  0  0  0  0
   11.3730   -2.7725    0.0000 C   0  0  0  0  0  0  0  0  0  0  0  0
   10.6557   -2.3563    0.0000 C   0  0  0  0  0  0  0  0  0  0  0  0
    9.9424   -2.7667    0.0000 C   0  0  0  0  0  0  0  0  0  0  0  0
   12.0801   -4.0150    0.0000 C   0  0  0  0  0  0  0  0  0  0  0  0
   10.6572   -1.5313    0.0000 C   0  0  0  0  0  0  0  0  0  0  0  0
    3.6048   -2.3293    0.0000 O   0  0  0  0  0  0  0  0  0  0  0  0
    3.6046   -1.5043    0.0000 C   0  0  0  0  0  0  0  0  0  0  0  0
    2.8901   -1.0920    0.0000 F   0  0  0  0  0  0  0  0  0  0  0  0
    4.3190   -1.0916    0.0000 F   0  0  0  0  0  0  0  0  0  0  0  0
    3.6000   -0.6792    0.0000 F   0  0  0  0  0  0  0  0  0  0  0  0
 12 13  1  0
  1  2  2  0
 12 14  2  0
  4  7  1  0
 13 15  1  0
  7  8  2  0
 15 16  2  0
  3  4  2  0
 16 17  1  0
 17 18  2  0
  4  5  1  0
 18 19  1  0
  2  3  1  0
 19 20  2  0
 20 15  1  0
  8  9  1  0
 17 21  1  0
  9 10  1  0
 19 22  1  0
 10 11  2  0
  1 23  1  0
 11  7  1  0
 23 24  1  0
  5  6  2  0
 24 25  1  0
 10 12  1  0
 24 26  1  0
  6  1  1  0
 24 27  1  0
M  END
> <chembl_id>
CHEMBL1270998

> <chembl_pref_name>
None

$$$$

     RDKit          2D

 27 29  0  0  0  0  0  0  0  0999 V2000
   13.7194    1.2584    0.0000 C   0  0  0  0  0  0  0  0  0  0  0  0
   13.7182    0.4310    0.0000 C   0  0  0  0  0  0  0  0  0  0  0  0
   14.4331    0.0181    0.0000 C   0  0  0  0  0  0  0  0  0  0  0  0
   15.1495    0.4315    0.0000 C   0  0  0  0  0  0  0  0  0  0  0  0
   15.1466    1.2620    0.0000 C   0  0  0  0  0  0  0  0  0  0  0  0
   14.4313    1.6711    0.0000 C   0  0  0  0  0  0  0  0  0  0  0  0
   15.8647    0.0205    0.0000 C   0  0  0  0  0  0  0  0  0  0  0  0
   16.1122   -0.7688    0.0000 N   0  0  0  0  0  0  0  0  0  0  0  0
   16.9372   -0.7736    0.0000 C   0  0  0  0  0  0  0  0  0  0  0  0
   17.1973    0.0098    0.0000 C   0  0  0  0  0  0  0  0  0  0  0  0
   16.5320    0.4983    0.0000 O   0  0  0  0  0  0  0  0  0  0  0  0
   17.9139    0.4185    0.0000 C   0  0  0  0  0  0  0  0  0  0  0  0
   18.6262    0.0022    0.0000 N   0  0  0  0  0  0  0  0  0  0  0  0
   17.9184    1.2435    0.0000 O   0  0  0  0  0  0  0  0  0  0  0  0
   19.3428    0.4108    0.0000 C   0  0  0  0  0  0  0  0  0  0  0  0
   20.0519   -0.0064    0.0000 C   0  0  0  0  0  0  0  0  0  0  0  0
   20.7681    0.4016    0.0000 C   0  0  0  0  0  0  0  0  0  0  0  0
   20.7730    1.2275    0.0000 C   0  0  0  0  0  0  0  0  0  0  0  0
   20.0557    1.6437    0.0000 C   0  0  0  0  0  0  0  0  0  0  0  0
   19.3424    1.2333    0.0000 C   0  0  0  0  0  0  0  0  0  0  0  0
   21.4801   -0.0150    0.0000 C   0  0  0  0  0  0  0  0  0  0  0  0
   20.0572    2.4687    0.0000 C   0  0  0  0  0  0  0  0  0  0  0  0
   13.0048    1.6707    0.0000 O   0  0  0  0  0  0  0  0  0  0  0  0
   13.0046    2.4957    0.0000 C   0  0  0  0  0  0  0  0  0  0  0  0
   12.2901    2.9080    0.0000 F   0  0  0  0  0  0  0  0  0  0  0  0
   13.7190    2.9084    0.0000 F   0  0  0  0  0  0  0  0  0  0  0  0
   13.0000    3.3208    0.0000 F   0  0  0  0  0  0  0  0  0  0  0  0
 12 13  1  0
  1  2  2  0
 12 14  2  0
  4  7  1  0
 13 15  1  0
  7  8  2  0
 15 16  2  0
  3  4  2  0
 16 17  1  0
 17 18  2  0
  4  5  1  0
 18 19  1  0
  2  3  1  0
 19 20  2  0
 20 15  1  0
  8  9  1  0
 17 21  1  0
  9 10  2  0
 19 22  1  0
 10 11  1  0
  1 23  1  0
 11  7  1  0
 23 24  1  0
  5  6  2  0
 24 25  1  0
 10 12  1  0
 24 26  1  0
  6  1  1  0
 24 27  1  0
M  END
> <chembl_id>
CHEMBL1270898

> <chembl_pref_name>
None

$$$$

     RDKit          2D

 23 25  0  0  0  0  0  0  0  0999 V2000
   16.5058   -3.7748    0.0000 C   0  0  0  0  0  0  0  0  0  0  0  0
   17.3331   -3.7691    0.0000 C   0  0  0  0  0  0  0  0  0  0  0  0
   17.7400   -3.0509    0.0000 C   0  0  0  0  0  0  0  0  0  0  0  0
   17.3208   -2.3379    0.0000 C   0  0  0  0  0  0  0  0  0  0  0  0
   16.4903   -2.3476    0.0000 C   0  0  0  0  0  0  0  0  0  0  0  0
   16.0871   -3.0664    0.0000 C   0  0  0  0  0  0  0  0  0  0  0  0
   15.2622   -3.0757    0.0000 Cl  0  0  0  0  0  0  0  0  0  0  0  0
   18.5650   -3.0442    0.0000 C   0  0  0  0  0  0  0  0  0  0  0  0
   19.0580   -3.7064    0.0000 C   0  0  0  0  0  0  0  0  0  0  0  0
   19.8405   -3.4451    0.0000 C   0  0  0  0  0  0  0  0  0  0  0  0
   19.8339   -2.6201    0.0000 C   0  0  0  0  0  0  0  0  0  0  0  0
   19.0472   -2.3716    0.0000 O   0  0  0  0  0  0  0  0  0  0  0  0
   20.5429   -2.2065    0.0000 C   0  0  0  0  0  0  0  0  0  0  0  0
   21.2592   -2.6158    0.0000 N   0  0  0  0  0  0  0  0  0  0  0  0
   20.5392   -1.3815    0.0000 O   0  0  0  0  0  0  0  0  0  0  0  0
   21.2629   -3.4408    0.0000 C   0  0  0  0  0  0  0  0  0  0  0  0
   21.9792   -3.8501    0.0000 C   0  0  0  0  0  0  0  0  0  0  0  0
   21.9829   -4.6751    0.0000 N   0  0  0  0  0  0  0  0  0  0  0  0
   21.2625   -5.0882    0.0000 C   0  0  0  0  0  0  0  0  0  0  0  0
   21.2642   -5.9096    0.0000 C   0  0  0  0  0  0  0  0  0  0  0  0
   21.9787   -6.3228    0.0000 C   0  0  0  0  0  0  0  0  0  0  0  0
   22.6931   -5.9084    0.0000 C   0  0  0  0  0  0  0  0  0  0  0  0
   22.6931   -5.0807    0.0000 C   0  0  0  0  0  0  0  0  0  0  0  0
 10 11  2  0
 11 12  1  0
 12  8  1  0
  6  1  1  0
 11 13  1  0
  1  2  2  0
 13 14  1  0
  6  7  1  0
 13 15  2  0
  3  4  2  0
 14 16  1  0
  3  8  1  0
 16 17  1  0
  8  9  2  0
 17 18  1  0
 18 19  1  0
  4  5  1  0
  2  3  1  0
  5  6  2  0
  9 10  1  0
 18 23  1  0
 19 20  1  0
 20 21  1  0
 21 22  1  0
 22 23  1  0
M  END
> <chembl_id>
CHEMBL519073

> <chembl_pref_name>
None

$$$$

     RDKit          2D

 26 28  0  0  0  0  0  0  0  0999 V2000
   -3.1764    0.9084    0.0000 C   0  0  0  0  0  0  0  0  0  0  0  0
   -3.1776    0.0810    0.0000 C   0  0  0  0  0  0  0  0  0  0  0  0
   -2.4628   -0.3319    0.0000 N   0  0  0  0  0  0  0  0  0  0  0  0
   -1.7463    0.0815    0.0000 C   0  0  0  0  0  0  0  0  0  0  0  0
   -1.7492    0.9120    0.0000 C   0  0  0  0  0  0  0  0  0  0  0  0
   -2.4646    1.3211    0.0000 N   0  0  0  0  0  0  0  0  0  0  0  0
   -1.0363    1.3272    0.0000 C   0  0  0  0  0  0  0  0  0  0  0  0
   -0.3203    0.9174    0.0000 N   0  0  0  0  0  0  0  0  0  0  0  0
    0.3927    1.3326    0.0000 C   0  0  0  0  0  0  0  0  0  0  0  0
   -1.0394    2.1522    0.0000 O   0  0  0  0  0  0  0  0  0  0  0  0
   -3.8889    1.3205    0.0000 C   0  0  0  0  0  0  0  0  0  0  0  0
   -3.8878    2.1466    0.0000 C   0  0  0  0  0  0  0  0  0  0  0  0
   -4.6015    2.5589    0.0000 C   0  0  0  0  0  0  0  0  0  0  0  0
   -5.3168    2.1462    0.0000 C   0  0  0  0  0  0  0  0  0  0  0  0
   -5.3140    1.3169    0.0000 C   0  0  0  0  0  0  0  0  0  0  0  0
   -4.5997    0.9084    0.0000 C   0  0  0  0  0  0  0  0  0  0  0  0
   -6.0347    2.5575    0.0000 Cl  0  0  0  0  0  0  0  0  0  0  0  0
    1.1071    0.9193    0.0000 C   0  0  0  0  0  0  0  0  0  0  0  0
    1.8195    1.3338    0.0000 C   0  0  0  0  0  0  0  0  0  0  0  0
    1.8168    2.1597    0.0000 C   0  0  0  0  0  0  0  0  0  0  0  0
    1.0958    2.5693    0.0000 C   0  0  0  0  0  0  0  0  0  0  0  0
    0.3863    2.1525    0.0000 C   0  0  0  0  0  0  0  0  0  0  0  0
    1.0898    3.3943    0.0000 O   0  0  0  0  0  0  0  0  0  0  0  0
    1.8012    3.8120    0.0000 C   0  0  0  0  0  0  0  0  0  0  0  0
    2.5353    0.9237    0.0000 O   0  0  0  0  0  0  0  0  0  0  0  0
    3.2484    1.3385    0.0000 C   0  0  0  0  0  0  0  0  0  0  0  0
  1  2  2  0
 13 14  2  0
  5  7  1  0
 14 15  1  0
  3  4  2  0
 15 16  2  0
 16 11  1  0
  1 11  1  0
  7  8  1  0
 14 17  1  0
  9 18  2  0
  8  9  1  0
 18 19  1  0
  4  5  1  0
 19 20  2  0
  7 10  2  0
 20 21  1  0
  2  3  1  0
 21 22  2  0
 22  9  1  0
  5  6  2  0
 21 23  1  0
 11 12  2  0
 23 24  1  0
  6  1  1  0
 19 25  1  0
 12 13  1  0
 25 26  1  0
M  END
> <chembl_id>
CHEMBL1277512

> <chembl_pref_name>
None

$$$$

     RDKit          2D

 28 30  0  0  0  0  0  0  0  0999 V2000
   16.2314   -8.0545    0.0000 C   0  0  0  0  0  0  0  0  0  0  0  0
   16.2302   -8.8818    0.0000 C   0  0  0  0  0  0  0  0  0  0  0  0
   16.9450   -9.2947    0.0000 C   0  0  0  0  0  0  0  0  0  0  0  0
   17.6615   -8.8813    0.0000 C   0  0  0  0  0  0  0  0  0  0  0  0
   17.6586   -8.0508    0.0000 C   0  0  0  0  0  0  0  0  0  0  0  0
   16.9432   -7.6417    0.0000 N   0  0  0  0  0  0  0  0  0  0  0  0
   14.0861   -6.8166    0.0000 C   0  0  0  0  0  0  0  0  0  0  0  0
   14.0849   -7.6440    0.0000 C   0  0  0  0  0  0  0  0  0  0  0  0
   14.7997   -8.0569    0.0000 C   0  0  0  0  0  0  0  0  0  0  0  0
   15.5162   -7.6435    0.0000 C   0  0  0  0  0  0  0  0  0  0  0  0
   15.5133   -6.8130    0.0000 C   0  0  0  0  0  0  0  0  0  0  0  0
   14.7979   -6.4039    0.0000 C   0  0  0  0  0  0  0  0  0  0  0  0
   13.3715   -6.4043    0.0000 O   0  0  0  0  0  0  0  0  0  0  0  0
   13.3713   -5.5793    0.0000 C   0  0  0  0  0  0  0  0  0  0  0  0
   12.6567   -5.1670    0.0000 F   0  0  0  0  0  0  0  0  0  0  0  0
   14.0857   -5.1666    0.0000 F   0  0  0  0  0  0  0  0  0  0  0  0
   13.3667   -4.7542    0.0000 F   0  0  0  0  0  0  0  0  0  0  0  0
   18.2806   -7.6565    0.0000 C   0  0  0  0  0  0  0  0  0  0  0  0
   18.9928   -8.0728    0.0000 N   0  0  0  0  0  0  0  0  0  0  0  0
   18.2850   -6.8315    0.0000 O   0  0  0  0  0  0  0  0  0  0  0  0
   19.7095   -7.6642    0.0000 C   0  0  0  0  0  0  0  0  0  0  0  0
   20.4186   -8.0814    0.0000 C   0  0  0  0  0  0  0  0  0  0  0  0
   21.1347   -7.6734    0.0000 C   0  0  0  0  0  0  0  0  0  0  0  0
   21.1396   -6.8475    0.0000 C   0  0  0  0  0  0  0  0  0  0  0  0
   20.4224   -6.4313    0.0000 C   0  0  0  0  0  0  0  0  0  0  0  0
   19.7091   -6.8417    0.0000 C   0  0  0  0  0  0  0  0  0  0  0  0
   21.8468   -8.0900    0.0000 C   0  0  0  0  0  0  0  0  0  0  0  0
   20.4239   -5.6063    0.0000 C   0  0  0  0  0  0  0  0  0  0  0  0
  1  2  2  0
 13 14  1  0
  3  4  2  0
 14 15  1  0
  7  8  2  0
 14 16  1  0
 14 17  1  0
  8  9  1  0
  5 18  1  0
  4  5  1  0
 18 19  1  0
  9 10  2  0
 18 20  2  0
  2  3  1  0
 19 21  1  0
 10 11  1  0
 21 22  2  0
  5  6  2  0
 22 23  1  0
 11 12  2  0
 23 24  2  0
 12  7  1  0
 24 25  1  0
 10  1  1  0
 25 26  2  0
 26 21  1  0
  6  1  1  0
 23 27  1  0
  7 13  1  0
 25 28  1  0
M  END
> <chembl_id>
CHEMBL1271205

> <chembl_pref_name>
None

$$$$

     RDKit          2D

 26 28  0  0  0  0  0  0  0  0999 V2000
    6.6897   -2.0685    0.0000 C   0  0  0  0  0  0  0  0  0  0  0  0
    6.6845   -2.8935    0.0000 C   0  0  0  0  0  0  0  0  0  0  0  0
    7.3950   -3.3055    0.0000 C   0  0  0  0  0  0  0  0  0  0  0  0
    8.1121   -2.8927    0.0000 C   0  0  0  0  0  0  0  0  0  0  0  0
    8.1107   -2.0635    0.0000 C   0  0  0  0  0  0  0  0  0  0  0  0
    7.3964   -1.6550    0.0000 C   0  0  0  0  0  0  0  0  0  0  0  0
    2.4044   -2.0739    0.0000 C   0  0  0  0  0  0  0  0  0  0  0  0
    2.4027   -2.9021    0.0000 C   0  0  0  0  0  0  0  0  0  0  0  0
    3.1189   -3.3151    0.0000 N   0  0  0  0  0  0  0  0  0  0  0  0
    3.8336   -2.9015    0.0000 C   0  0  0  0  0  0  0  0  0  0  0  0
    3.8322   -2.0703    0.0000 C   0  0  0  0  0  0  0  0  0  0  0  0
    3.1162   -1.6609    0.0000 N   0  0  0  0  0  0  0  0  0  0  0  0
    4.5438   -1.6579    0.0000 C   0  0  0  0  0  0  0  0  0  0  0  0
    5.2577   -2.0692    0.0000 N   0  0  0  0  0  0  0  0  0  0  0  0
    4.5438   -0.8309    0.0000 O   0  0  0  0  0  0  0  0  0  0  0  0
    1.6886   -1.6615    0.0000 C   0  0  0  0  0  0  0  0  0  0  0  0
    1.6902   -0.8351    0.0000 C   0  0  0  0  0  0  0  0  0  0  0  0
    0.9756   -0.4229    0.0000 C   0  0  0  0  0  0  0  0  0  0  0  0
    0.2623   -0.8367    0.0000 C   0  0  0  0  0  0  0  0  0  0  0  0
    0.2629   -1.6671    0.0000 C   0  0  0  0  0  0  0  0  0  0  0  0
    0.9784   -2.0734    0.0000 C   0  0  0  0  0  0  0  0  0  0  0  0
   -0.4535   -0.4242    0.0000 O   0  0  0  0  0  0  0  0  0  0  0  0
   -1.1658   -0.8371    0.0000 C   0  0  0  0  0  0  0  0  0  0  0  0
   -1.8812   -0.4248    0.0000 C   0  0  0  0  0  0  0  0  0  0  0  0
    5.9744   -1.6563    0.0000 C   0  0  0  0  0  0  0  0  0  0  0  0
    7.3924   -0.8301    0.0000 C   0  0  0  0  0  0  0  0  0  0  0  0
  6  1  1  0
 11 13  1  0
  1  2  2  0
 13 14  1  0
  3  4  2  0
 13 15  2  0
  7  8  2  0
 16 17  2  0
  8  9  1  0
 17 18  1  0
  4  5  1  0
 18 19  2  0
  9 10  2  0
 19 20  1  0
  2  3  1  0
 20 21  2  0
 21 16  1  0
  7 16  1  0
 10 11  1  0
 19 22  1  0
  5  6  2  0
 22 23  1  0
 11 12  2  0
 12  7  1  0
 23 24  1  0
 14 25  1  0
 25  1  1  0
  6 26  1  0
M  END
> <chembl_id>
CHEMBL1277959

> <chembl_pref_name>
None

$$$$

     RDKit          2D

 23 25  0  0  0  0  0  0  0  0999 V2000
   14.4527  -23.4250    0.0000 C   0  0  0  0  0  0  0  0  0  0  0  0
   14.4516  -24.2523    0.0000 C   0  0  0  0  0  0  0  0  0  0  0  0
   15.1664  -24.6652    0.0000 C   0  0  0  0  0  0  0  0  0  0  0  0
   15.8828  -24.2519    0.0000 C   0  0  0  0  0  0  0  0  0  0  0  0
   15.8800  -23.4213    0.0000 C   0  0  0  0  0  0  0  0  0  0  0  0
   15.1646  -23.0122    0.0000 C   0  0  0  0  0  0  0  0  0  0  0  0
   16.5944  -24.6625    0.0000 C   0  0  0  0  0  0  0  0  0  0  0  0
   16.5944  -25.4886    0.0000 C   0  0  0  0  0  0  0  0  0  0  0  0
   17.3086  -25.8999    0.0000 N   0  0  0  0  0  0  0  0  0  0  0  0
   18.0234  -25.4862    0.0000 C   0  0  0  0  0  0  0  0  0  0  0  0
   18.0195  -24.6569    0.0000 C   0  0  0  0  0  0  0  0  0  0  0  0
   17.3046  -24.2494    0.0000 C   0  0  0  0  0  0  0  0  0  0  0  0
   13.7382  -23.0126    0.0000 Cl  0  0  0  0  0  0  0  0  0  0  0  0
   18.7318  -24.2408    0.0000 C   0  0  0  0  0  0  0  0  0  0  0  0
   19.4484  -24.6497    0.0000 N   0  0  0  0  0  0  0  0  0  0  0  0
   18.7276  -23.4158    0.0000 O   0  0  0  0  0  0  0  0  0  0  0  0
   20.1608  -24.2335    0.0000 C   0  0  0  0  0  0  0  0  0  0  0  0
   20.8773  -24.6424    0.0000 C   0  0  0  0  0  0  0  0  0  0  0  0
   20.8764  -25.4678    0.0000 C   0  0  0  0  0  0  0  0  0  0  0  0
   21.5922  -25.8765    0.0000 C   0  0  0  0  0  0  0  0  0  0  0  0
   22.3055  -25.4603    0.0000 C   0  0  0  0  0  0  0  0  0  0  0  0
   22.2986  -24.6311    0.0000 N   0  0  0  0  0  0  0  0  0  0  0  0
   21.5823  -24.2261    0.0000 C   0  0  0  0  0  0  0  0  0  0  0  0
 11 12  2  0
 12  7  1  0
  4  7  1  0
  6  1  1  0
  1 13  1  0
  1  2  2  0
 11 14  1  0
  3  4  2  0
 14 15  1  0
  7  8  2  0
 14 16  2  0
 15 17  1  0
  8  9  1  0
 17 18  1  0
  4  5  1  0
 18 19  2  0
  9 10  2  0
 19 20  1  0
  2  3  1  0
 20 21  2  0
 10 11  1  0
 21 22  1  0
  5  6  2  0
 22 23  2  0
 23 18  1  0
M  END
> <chembl_id>
CHEMBL1270098

> <chembl_pref_name>
None

$$$$

     RDKit          2D

 27 29  0  0  0  0  0  0  0  0999 V2000
    4.2611    1.3834    0.0000 C   0  0  0  0  0  0  0  0  0  0  0  0
    4.2599    0.5560    0.0000 C   0  0  0  0  0  0  0  0  0  0  0  0
    4.9747    0.1431    0.0000 C   0  0  0  0  0  0  0  0  0  0  0  0
    5.6912    0.5565    0.0000 C   0  0  0  0  0  0  0  0  0  0  0  0
    5.6883    1.3870    0.0000 C   0  0  0  0  0  0  0  0  0  0  0  0
    4.9729    1.7961    0.0000 C   0  0  0  0  0  0  0  0  0  0  0  0
    6.4064    0.1455    0.0000 C   0  0  0  0  0  0  0  0  0  0  0  0
    6.6538   -0.6438    0.0000 C   0  0  0  0  0  0  0  0  0  0  0  0
    7.4788   -0.6486    0.0000 C   0  0  0  0  0  0  0  0  0  0  0  0
    7.7389    0.1348    0.0000 C   0  0  0  0  0  0  0  0  0  0  0  0
    7.0737    0.6233    0.0000 O   0  0  0  0  0  0  0  0  0  0  0  0
    8.4556    0.5435    0.0000 C   0  0  0  0  0  0  0  0  0  0  0  0
    9.1678    0.1272    0.0000 N   0  0  0  0  0  0  0  0  0  0  0  0
    8.4600    1.3685    0.0000 O   0  0  0  0  0  0  0  0  0  0  0  0
    9.8845    0.5358    0.0000 C   0  0  0  0  0  0  0  0  0  0  0  0
   10.5936    0.1186    0.0000 C   0  0  0  0  0  0  0  0  0  0  0  0
   11.3097    0.5266    0.0000 C   0  0  0  0  0  0  0  0  0  0  0  0
   11.3146    1.3525    0.0000 C   0  0  0  0  0  0  0  0  0  0  0  0
   10.5974    1.7687    0.0000 C   0  0  0  0  0  0  0  0  0  0  0  0
    9.8841    1.3583    0.0000 C   0  0  0  0  0  0  0  0  0  0  0  0
   12.0218    0.1100    0.0000 C   0  0  0  0  0  0  0  0  0  0  0  0
   10.5989    2.5937    0.0000 C   0  0  0  0  0  0  0  0  0  0  0  0
    3.5465    1.7957    0.0000 O   0  0  0  0  0  0  0  0  0  0  0  0
    3.5463    2.6207    0.0000 C   0  0  0  0  0  0  0  0  0  0  0  0
    2.8317    3.0330    0.0000 F   0  0  0  0  0  0  0  0  0  0  0  0
    4.2607    3.0334    0.0000 F   0  0  0  0  0  0  0  0  0  0  0  0
    3.5417    3.4458    0.0000 F   0  0  0  0  0  0  0  0  0  0  0  0
 12 13  1  0
  1  2  2  0
 12 14  2  0
  4  7  1  0
 13 15  1  0
  7  8  2  0
 15 16  2  0
  3  4  2  0
 16 17  1  0
 17 18  2  0
  4  5  1  0
 18 19  1  0
  2  3  1  0
 19 20  2  0
 20 15  1  0
  8  9  1  0
 17 21  1  0
  9 10  2  0
 19 22  1  0
 10 11  1  0
  1 23  1  0
 11  7  1  0
 23 24  1  0
  5  6  2  0
 24 25  1  0
 10 12  1  0
 24 26  1  0
  6  1  1  0
 24 27  1  0
M  END
> <chembl_id>
CHEMBL1270797

> <chembl_pref_name>
None

$$$$

     RDKit          2D

 24 26  0  0  0  0  0  0  0  0999 V2000
   10.3539   -0.0289    0.0000 C   0  0  0  0  0  0  0  0  0  0  0  0
   10.9131    0.5786    0.0000 O   0  0  0  0  0  0  0  0  0  0  0  0
   11.6647    0.2362    0.0000 C   0  0  0  0  0  0  0  0  0  0  0  0
   11.5694   -0.5866    0.0000 C   0  0  0  0  0  0  0  0  0  0  0  0
   10.7602   -0.7465    0.0000 C   0  0  0  0  0  0  0  0  0  0  0  0
    9.5341    0.0659    0.0000 C   0  0  0  0  0  0  0  0  0  0  0  0
    9.0428   -0.5991    0.0000 C   0  0  0  0  0  0  0  0  0  0  0  0
    8.2231   -0.5054    0.0000 C   0  0  0  0  0  0  0  0  0  0  0  0
    7.8937    0.2528    0.0000 C   0  0  0  0  0  0  0  0  0  0  0  0
    8.3903    0.9180    0.0000 C   0  0  0  0  0  0  0  0  0  0  0  0
    9.2081    0.8209    0.0000 C   0  0  0  0  0  0  0  0  0  0  0  0
   12.3837    0.6423    0.0000 C   0  0  0  0  0  0  0  0  0  0  0  0
   12.3916    1.4679    0.0000 O   0  0  0  0  0  0  0  0  0  0  0  0
   13.0948    0.2225    0.0000 N   0  0  0  0  0  0  0  0  0  0  0  0
   13.8139    0.6286    0.0000 C   0  0  0  0  0  0  0  0  0  0  0  0
    7.0736    0.3482    0.0000 Cl  0  0  0  0  0  0  0  0  0  0  0  0
   14.5250    0.2089    0.0000 C   0  0  0  0  0  0  0  0  0  0  0  0
   15.2397    0.6154    0.0000 C   0  0  0  0  0  0  0  0  0  0  0  0
   15.9465    0.1971    0.0000 C   0  0  0  0  0  0  0  0  0  0  0  0
   16.6607    0.6029    0.0000 C   0  0  0  0  0  0  0  0  0  0  0  0
   16.6665    1.4259    0.0000 C   0  0  0  0  0  0  0  0  0  0  0  0
   15.9521    1.8414    0.0000 C   0  0  0  0  0  0  0  0  0  0  0  0
   15.2409    1.4332    0.0000 C   0  0  0  0  0  0  0  0  0  0  0  0
   14.5266    1.8476    0.0000 Cl  0  0  0  0  0  0  0  0  0  0  0  0
  1  2  1  0
  3 12  1  0
 12 13  2  0
  6  7  2  0
 12 14  1  0
  2  3  1  0
 14 15  1  0
  7  8  1  0
  9 16  1  0
  3  4  2  0
 15 17  1  0
  8  9  2  0
 18 17  1  0
  4  5  1  0
 18 19  2  0
  9 10  1  0
 19 20  1  0
  5  1  2  0
 20 21  2  0
 10 11  2  0
 21 22  1  0
 11  6  1  0
 22 23  2  0
 23 18  1  0
  1  6  1  0
 23 24  1  0
M  END
> <chembl_id>
CHEMBL253560

> <chembl_pref_name>
None

$$$$

     RDKit          2D

 23 25  0  0  0  0  0  0  0  0999 V2000
    6.7189    1.4958    0.0000 C   0  0  0  0  0  0  0  0  0  0  0  0
    6.7177    0.6684    0.0000 C   0  0  0  0  0  0  0  0  0  0  0  0
    7.4325    0.2556    0.0000 N   0  0  0  0  0  0  0  0  0  0  0  0
    8.1489    0.6689    0.0000 C   0  0  0  0  0  0  0  0  0  0  0  0
    8.1460    1.4994    0.0000 C   0  0  0  0  0  0  0  0  0  0  0  0
    7.4307    1.9085    0.0000 N   0  0  0  0  0  0  0  0  0  0  0  0
    8.8589    1.9146    0.0000 C   0  0  0  0  0  0  0  0  0  0  0  0
    9.5749    1.5048    0.0000 N   0  0  0  0  0  0  0  0  0  0  0  0
   10.2877    1.9200    0.0000 C   0  0  0  0  0  0  0  0  0  0  0  0
    8.8557    2.7395    0.0000 O   0  0  0  0  0  0  0  0  0  0  0  0
    6.0064    1.9079    0.0000 C   0  0  0  0  0  0  0  0  0  0  0  0
    6.0076    2.7339    0.0000 C   0  0  0  0  0  0  0  0  0  0  0  0
    5.2939    3.1462    0.0000 C   0  0  0  0  0  0  0  0  0  0  0  0
    4.5787    2.7335    0.0000 C   0  0  0  0  0  0  0  0  0  0  0  0
    4.5815    1.9043    0.0000 C   0  0  0  0  0  0  0  0  0  0  0  0
    5.2958    1.4958    0.0000 C   0  0  0  0  0  0  0  0  0  0  0  0
    3.8636    3.1448    0.0000 Cl  0  0  0  0  0  0  0  0  0  0  0  0
   11.0021    1.5067    0.0000 C   0  0  0  0  0  0  0  0  0  0  0  0
   11.7144    1.9212    0.0000 C   0  0  0  0  0  0  0  0  0  0  0  0
   11.7118    2.7470    0.0000 C   0  0  0  0  0  0  0  0  0  0  0  0
   10.9908    3.1566    0.0000 C   0  0  0  0  0  0  0  0  0  0  0  0
   10.2814    2.7398    0.0000 C   0  0  0  0  0  0  0  0  0  0  0  0
   12.4303    1.5111    0.0000 C   0  0  0  0  0  0  0  0  0  0  0  0
 11 12  2  0
  6  1  1  0
 12 13  1  0
  1  2  2  0
 13 14  2  0
  5  7  1  0
 14 15  1  0
  3  4  2  0
 15 16  2  0
 16 11  1  0
  1 11  1  0
  7  8  1  0
 14 17  1  0
  9 18  2  0
  8  9  1  0
 18 19  1  0
  4  5  1  0
 19 20  2  0
  7 10  2  0
 20 21  1  0
  2  3  1  0
 21 22  2  0
 22  9  1  0
  5  6  2  0
 19 23  1  0
M  END
> <chembl_id>
CHEMBL1277513

> <chembl_pref_name>
None

$$$$

     RDKit          2D

 26 28  0  0  0  0  0  0  0  0999 V2000
   13.6486    2.1750    0.0000 C   0  0  0  0  0  0  0  0  0  0  0  0
   13.6474    1.3477    0.0000 C   0  0  0  0  0  0  0  0  0  0  0  0
   14.3622    0.9348    0.0000 C   0  0  0  0  0  0  0  0  0  0  0  0
   15.0787    1.3481    0.0000 C   0  0  0  0  0  0  0  0  0  0  0  0
   15.0758    2.1787    0.0000 C   0  0  0  0  0  0  0  0  0  0  0  0
   14.3604    2.5878    0.0000 C   0  0  0  0  0  0  0  0  0  0  0  0
   15.7902    0.9375    0.0000 C   0  0  0  0  0  0  0  0  0  0  0  0
   15.7902    0.1114    0.0000 C   0  0  0  0  0  0  0  0  0  0  0  0
   16.5045   -0.2999    0.0000 N   0  0  0  0  0  0  0  0  0  0  0  0
   17.2193    0.1138    0.0000 C   0  0  0  0  0  0  0  0  0  0  0  0
   17.2153    0.9431    0.0000 C   0  0  0  0  0  0  0  0  0  0  0  0
   16.5005    1.3506    0.0000 C   0  0  0  0  0  0  0  0  0  0  0  0
   12.9340    2.5874    0.0000 Cl  0  0  0  0  0  0  0  0  0  0  0  0
   17.9277    1.3592    0.0000 C   0  0  0  0  0  0  0  0  0  0  0  0
   18.6442    0.9503    0.0000 N   0  0  0  0  0  0  0  0  0  0  0  0
   17.9235    2.1842    0.0000 O   0  0  0  0  0  0  0  0  0  0  0  0
   19.3566    1.3665    0.0000 C   0  0  0  0  0  0  0  0  0  0  0  0
   20.0732    0.9576    0.0000 C   0  0  0  0  0  0  0  0  0  0  0  0
   20.0723    0.1322    0.0000 C   0  0  0  0  0  0  0  0  0  0  0  0
   20.7880   -0.2765    0.0000 C   0  0  0  0  0  0  0  0  0  0  0  0
   21.5013    0.1397    0.0000 C   0  0  0  0  0  0  0  0  0  0  0  0
   21.4945    0.9689    0.0000 N   0  0  0  0  0  0  0  0  0  0  0  0
   20.7782    1.3739    0.0000 C   0  0  0  0  0  0  0  0  0  0  0  0
   20.7704    2.1989    0.0000 O   0  0  0  0  0  0  0  0  0  0  0  0
   21.4810    2.6181    0.0000 C   0  0  0  0  0  0  0  0  0  0  0  0
   21.4732    3.4431    0.0000 C   0  0  0  0  0  0  0  0  0  0  0  0
  6  1  1  0
  1 13  1  0
  1  2  2  0
 11 14  1  0
  3  4  2  0
 14 15  1  0
  7  8  2  0
 14 16  2  0
 15 17  1  0
  8  9  1  0
 17 18  1  0
  4  5  1  0
 18 19  2  0
  9 10  2  0
 19 20  1  0
  2  3  1  0
 20 21  2  0
 10 11  1  0
 21 22  1  0
  5  6  2  0
 22 23  2  0
 23 18  1  0
 11 12  2  0
 23 24  1  0
 12  7  1  0
 24 25  1  0
  4  7  1  0
 25 26  1  0
M  END
> <chembl_id>
CHEMBL1270207

> <chembl_pref_name>
None

$$$$

     RDKit          2D

 27 29  0  0  0  0  0  0  0  0999 V2000
   13.3444   -2.6166    0.0000 C   0  0  0  0  0  0  0  0  0  0  0  0
   13.3432   -3.4440    0.0000 C   0  0  0  0  0  0  0  0  0  0  0  0
   14.0581   -3.8569    0.0000 C   0  0  0  0  0  0  0  0  0  0  0  0
   14.7745   -3.4435    0.0000 C   0  0  0  0  0  0  0  0  0  0  0  0
   14.7716   -2.6130    0.0000 C   0  0  0  0  0  0  0  0  0  0  0  0
   14.0563   -2.2039    0.0000 C   0  0  0  0  0  0  0  0  0  0  0  0
   15.4897   -3.8545    0.0000 C   0  0  0  0  0  0  0  0  0  0  0  0
   15.7372   -4.6438    0.0000 S   0  0  0  0  0  0  0  0  0  0  0  0
   16.5622   -4.6486    0.0000 C   0  0  0  0  0  0  0  0  0  0  0  0
   16.8223   -3.8652    0.0000 C   0  0  0  0  0  0  0  0  0  0  0  0
   16.1570   -3.3767    0.0000 N   0  0  0  0  0  0  0  0  0  0  0  0
   17.5389   -3.4565    0.0000 C   0  0  0  0  0  0  0  0  0  0  0  0
   18.2512   -3.8728    0.0000 N   0  0  0  0  0  0  0  0  0  0  0  0
   17.5434   -2.6315    0.0000 O   0  0  0  0  0  0  0  0  0  0  0  0
   18.9678   -3.4642    0.0000 C   0  0  0  0  0  0  0  0  0  0  0  0
   19.6769   -3.8814    0.0000 C   0  0  0  0  0  0  0  0  0  0  0  0
   20.3931   -3.4734    0.0000 C   0  0  0  0  0  0  0  0  0  0  0  0
   20.3980   -2.6475    0.0000 C   0  0  0  0  0  0  0  0  0  0  0  0
   19.6807   -2.2313    0.0000 C   0  0  0  0  0  0  0  0  0  0  0  0
   18.9674   -2.6417    0.0000 C   0  0  0  0  0  0  0  0  0  0  0  0
   21.1051   -3.8900    0.0000 C   0  0  0  0  0  0  0  0  0  0  0  0
   19.6822   -1.4063    0.0000 C   0  0  0  0  0  0  0  0  0  0  0  0
   12.6298   -2.2043    0.0000 O   0  0  0  0  0  0  0  0  0  0  0  0
   12.6296   -1.3793    0.0000 C   0  0  0  0  0  0  0  0  0  0  0  0
   11.9151   -0.9670    0.0000 F   0  0  0  0  0  0  0  0  0  0  0  0
   13.3440   -0.9666    0.0000 F   0  0  0  0  0  0  0  0  0  0  0  0
   12.6250   -0.5542    0.0000 F   0  0  0  0  0  0  0  0  0  0  0  0
 12 13  1  0
  1  2  2  0
 12 14  2  0
  4  7  1  0
 13 15  1  0
  7  8  1  0
 15 16  2  0
  3  4  2  0
 16 17  1  0
 17 18  2  0
  4  5  1  0
 18 19  1  0
  2  3  1  0
 19 20  2  0
 20 15  1  0
  8  9  1  0
 17 21  1  0
  9 10  2  0
 19 22  1  0
 10 11  1  0
  1 23  1  0
 11  7  2  0
 23 24  1  0
  5  6  2  0
 24 25  1  0
 10 12  1  0
 24 26  1  0
  6  1  1  0
 24 27  1  0
M  END
> <chembl_id>
CHEMBL1270999

> <chembl_pref_name>
None

$$$$

     RDKit          2D

 22 24  0  0  0  0  0  0  0  0999 V2000
    6.4184   -6.6513    0.0000 O   0  0  0  0  0  0  0  0  0  0  0  0
    6.3740   -5.8280    0.0000 C   0  0  0  0  0  0  0  0  0  0  0  0
    7.1446   -5.5322    0.0000 C   0  0  0  0  0  0  0  0  0  0  0  0
    7.6618   -6.1747    0.0000 C   0  0  0  0  0  0  0  0  0  0  0  0
    7.2152   -6.8652    0.0000 C   0  0  0  0  0  0  0  0  0  0  0  0
    5.6835   -5.3768    0.0000 C   0  0  0  0  0  0  0  0  0  0  0  0
    5.7233   -4.5534    0.0000 O   0  0  0  0  0  0  0  0  0  0  0  0
    4.9691   -5.7895    0.0000 N   0  0  0  0  0  0  0  0  0  0  0  0
    4.2547   -5.3768    0.0000 C   0  0  0  0  0  0  0  0  0  0  0  0
    3.5357   -5.7895    0.0000 C   0  0  0  0  0  0  0  0  0  0  0  0
    2.8213   -5.3768    0.0000 C   0  0  0  0  0  0  0  0  0  0  0  0
    2.8213   -4.5515    0.0000 C   0  0  0  0  0  0  0  0  0  0  0  0
    3.5357   -4.1388    0.0000 C   0  0  0  0  0  0  0  0  0  0  0  0
    4.2547   -4.5515    0.0000 C   0  0  0  0  0  0  0  0  0  0  0  0
    2.1069   -5.7895    0.0000 C   0  0  0  0  0  0  0  0  0  0  0  0
    8.4897   -6.1302    0.0000 C   0  0  0  0  0  0  0  0  0  0  0  0
    8.8621   -5.3953    0.0000 C   0  0  0  0  0  0  0  0  0  0  0  0
    9.6855   -5.3507    0.0000 C   0  0  0  0  0  0  0  0  0  0  0  0
   10.1366   -6.0458    0.0000 C   0  0  0  0  0  0  0  0  0  0  0  0
    9.7597   -6.7808    0.0000 C   0  0  0  0  0  0  0  0  0  0  0  0
    8.9363   -6.8208    0.0000 C   0  0  0  0  0  0  0  0  0  0  0  0
   10.9600   -6.0014    0.0000 Cl  0  0  0  0  0  0  0  0  0  0  0  0
  1  2  1  0
  2  3  2  0
  3  4  1  0
  4  5  2  0
  1  5  1  0
  6  7  2  0
  6  8  1  0
  2  6  1  0
  9 10  1  0
 10 11  2  0
 11 12  1  0
 12 13  2  0
 13 14  1  0
  9 14  2  0
 11 15  1  0
  8  9  1  0
 16 17  1  0
 17 18  2  0
 18 19  1  0
 19 20  2  0
 20 21  1  0
 16 21  2  0
 19 22  1  0
  4 16  1  0
M  END
> <chembl_id>
CHEMBL254385

> <chembl_pref_name>
None

$$$$

     RDKit          2D

 26 29  0  0  0  0  0  0  0  0999 V2000
   10.4277  -18.2504    0.0000 C   0  0  0  0  0  0  0  0  0  0  0  0
   11.1827  -17.9165    0.0000 O   0  0  0  0  0  0  0  0  0  0  0  0
   11.7351  -18.5303    0.0000 C   0  0  0  0  0  0  0  0  0  0  0  0
   11.3195  -19.2466    0.0000 C   0  0  0  0  0  0  0  0  0  0  0  0
   10.5139  -19.0702    0.0000 C   0  0  0  0  0  0  0  0  0  0  0  0
    9.7141  -17.8364    0.0000 C   0  0  0  0  0  0  0  0  0  0  0  0
    8.9983  -18.2500    0.0000 C   0  0  0  0  0  0  0  0  0  0  0  0
    8.2843  -17.8369    0.0000 C   0  0  0  0  0  0  0  0  0  0  0  0
    8.2849  -17.0105    0.0000 C   0  0  0  0  0  0  0  0  0  0  0  0
    9.0054  -16.5987    0.0000 C   0  0  0  0  0  0  0  0  0  0  0  0
    9.7164  -17.0141    0.0000 C   0  0  0  0  0  0  0  0  0  0  0  0
   12.5563  -18.4449    0.0000 C   0  0  0  0  0  0  0  0  0  0  0  0
   12.8929  -17.6911    0.0000 O   0  0  0  0  0  0  0  0  0  0  0  0
   13.0408  -19.1134    0.0000 N   0  0  0  0  0  0  0  0  0  0  0  0
   13.8619  -19.0281    0.0000 C   0  0  0  0  0  0  0  0  0  0  0  0
   14.1941  -18.2755    0.0000 C   0  0  0  0  0  0  0  0  0  0  0  0
   15.0145  -18.1898    0.0000 C   0  0  0  0  0  0  0  0  0  0  0  0
   14.3396  -19.6974    0.0000 C   0  0  0  0  0  0  0  0  0  0  0  0
    7.5710  -16.5958    0.0000 Cl  0  0  0  0  0  0  0  0  0  0  0  0
   15.5002  -18.8545    0.0000 C   0  0  0  0  0  0  0  0  0  0  0  0
   15.1590  -19.6154    0.0000 C   0  0  0  0  0  0  0  0  0  0  0  0
   15.6446  -20.2877    0.0000 O   0  0  0  0  0  0  0  0  0  0  0  0
   16.4739  -20.2051    0.0000 C   0  0  0  0  0  0  0  0  0  0  0  0
   16.8151  -19.4441    0.0000 C   0  0  0  0  0  0  0  0  0  0  0  0
   16.3272  -18.7657    0.0000 N   0  0  0  0  0  0  0  0  0  0  0  0
   16.6639  -18.0120    0.0000 C   0  0  0  0  0  0  0  0  0  0  0  0
 12 13  2  0
  6  7  2  0
 12 14  1  0
  2  3  1  0
 14 15  1  0
  7  8  1  0
 15 16  2  0
  3  4  2  0
 16 17  1  0
 17 20  2  0
  8  9  2  0
 21 18  2  0
 18 15  1  0
  4  5  1  0
  9 19  1  0
 20 21  1  0
  9 10  1  0
  5  1  2  0
 10 11  2  0
 11  6  1  0
  1  6  1  0
  1  2  1  0
 20 25  1  0
 21 22  1  0
 22 23  1  0
 23 24  1  0
 24 25  1  0
  3 12  1  0
 25 26  1  0
M  END
> <chembl_id>
CHEMBL399792

> <chembl_pref_name>
None

$$$$

     RDKit          2D

 24 26  0  0  0  0  0  0  0  0999 V2000
   13.0111  -18.2416    0.0000 C   0  0  0  0  0  0  0  0  0  0  0  0
   13.0099  -19.0690    0.0000 C   0  0  0  0  0  0  0  0  0  0  0  0
   13.7247  -19.4819    0.0000 C   0  0  0  0  0  0  0  0  0  0  0  0
   14.4412  -19.0685    0.0000 C   0  0  0  0  0  0  0  0  0  0  0  0
   14.4383  -18.2380    0.0000 C   0  0  0  0  0  0  0  0  0  0  0  0
   13.7229  -17.8289    0.0000 C   0  0  0  0  0  0  0  0  0  0  0  0
   15.1527  -19.4791    0.0000 C   0  0  0  0  0  0  0  0  0  0  0  0
   15.1527  -20.3053    0.0000 C   0  0  0  0  0  0  0  0  0  0  0  0
   15.8670  -20.7166    0.0000 N   0  0  0  0  0  0  0  0  0  0  0  0
   16.5818  -20.3029    0.0000 C   0  0  0  0  0  0  0  0  0  0  0  0
   16.5778  -19.4736    0.0000 C   0  0  0  0  0  0  0  0  0  0  0  0
   15.8630  -19.0660    0.0000 C   0  0  0  0  0  0  0  0  0  0  0  0
   12.2965  -17.8293    0.0000 Cl  0  0  0  0  0  0  0  0  0  0  0  0
   17.2902  -19.0575    0.0000 C   0  0  0  0  0  0  0  0  0  0  0  0
   18.0067  -19.4663    0.0000 N   0  0  0  0  0  0  0  0  0  0  0  0
   17.2860  -18.2325    0.0000 O   0  0  0  0  0  0  0  0  0  0  0  0
   18.7191  -19.0502    0.0000 C   0  0  0  0  0  0  0  0  0  0  0  0
   19.4357  -19.4590    0.0000 C   0  0  0  0  0  0  0  0  0  0  0  0
   19.4348  -20.2844    0.0000 C   0  0  0  0  0  0  0  0  0  0  0  0
   20.1505  -20.6932    0.0000 C   0  0  0  0  0  0  0  0  0  0  0  0
   20.8638  -20.2770    0.0000 C   0  0  0  0  0  0  0  0  0  0  0  0
   20.8570  -19.4478    0.0000 C   0  0  0  0  0  0  0  0  0  0  0  0
   20.1407  -19.0427    0.0000 C   0  0  0  0  0  0  0  0  0  0  0  0
   20.1329  -18.2178    0.0000 Cl  0  0  0  0  0  0  0  0  0  0  0  0
 12  7  1  0
  4  7  1  0
  6  1  1  0
  1 13  1  0
  1  2  2  0
 11 14  1  0
  3  4  2  0
 14 15  1  0
  7  8  2  0
 14 16  2  0
 15 17  1  0
  8  9  1  0
 17 18  1  0
  4  5  1  0
 18 19  2  0
  9 10  2  0
 19 20  1  0
  2  3  1  0
 20 21  2  0
 10 11  1  0
 21 22  1  0
  5  6  2  0
 22 23  2  0
 23 18  1  0
 11 12  2  0
 23 24  1  0
M  END
> <chembl_id>
CHEMBL1269883

> <chembl_pref_name>
None

$$$$

     RDKit          2D

 22 24  0  0  0  0  0  0  0  0999 V2000
    2.6984  -14.3827    0.0000 C   0  0  0  0  0  0  0  0  0  0  0  0
    2.6973  -15.2100    0.0000 C   0  0  0  0  0  0  0  0  0  0  0  0
    3.4121  -15.6229    0.0000 C   0  0  0  0  0  0  0  0  0  0  0  0
    4.1285  -15.2095    0.0000 C   0  0  0  0  0  0  0  0  0  0  0  0
    4.1257  -14.3791    0.0000 C   0  0  0  0  0  0  0  0  0  0  0  0
    3.4102  -13.9699    0.0000 C   0  0  0  0  0  0  0  0  0  0  0  0
    3.4056  -13.1413    0.0000 C   0  0  0  0  0  0  0  0  0  0  0  0
    4.0716  -12.6544    0.0000 N   0  0  0  0  0  0  0  0  0  0  0  0
    3.8142  -11.8706    0.0000 C   0  0  0  0  0  0  0  0  0  0  0  0
    2.9893  -11.8731    0.0000 N   0  0  0  0  0  0  0  0  0  0  0  0
    2.7368  -12.6584    0.0000 C   0  0  0  0  0  0  0  0  0  0  0  0
    3.4149  -16.4438    0.0000 O   0  0  0  0  0  0  0  0  0  0  0  0
    2.7018  -16.8587    0.0000 C   0  0  0  0  0  0  0  0  0  0  0  0
    2.7046  -17.6836    0.0000 F   0  0  0  0  0  0  0  0  0  0  0  0
    1.9860  -16.4486    0.0000 F   0  0  0  0  0  0  0  0  0  0  0  0
    1.9833  -17.2659    0.0000 F   0  0  0  0  0  0  0  0  0  0  0  0
    4.2972  -11.2018    0.0000 C   0  0  0  0  0  0  0  0  0  0  0  0
    5.1179  -11.2855    0.0000 C   0  0  0  0  0  0  0  0  0  0  0  0
    5.6393  -11.9209    0.0000 C   0  0  0  0  0  0  0  0  0  0  0  0
    6.2790  -11.3998    0.0000 O   0  0  0  0  0  0  0  0  0  0  0  0
    5.7579  -10.7603    0.0000 C   0  0  0  0  0  0  0  0  0  0  0  0
    4.6998  -10.5663    0.0000 N   0  0  0  0  0  0  0  0  0  0  0  0
  1  2  2  0
  2  3  1  0
  3  4  2  0
  4  5  1  0
  5  6  2  0
  6  1  1  0
  7  8  1  0
  8  9  2  0
  9 10  1  0
 10 11  1  0
 11  7  2  0
  6  7  1  0
  3 12  1  0
 12 13  1  0
 13 14  1  0
 13 15  1  0
 13 16  1  0
  9 17  1  0
 17 18  1  0
 18 19  1  0
 19 20  1  0
 20 21  1  0
 21 18  1  0
 18 22  1  0
M  END
> <chembl_id>
CHEMBL4096468

> <chembl_pref_name>
None

$$$$

     RDKit          2D

 20 21  0  0  0  0  0  0  0  0999 V2000
   21.1906   -1.0371    0.0000 C   0  0  0  0  0  0  0  0  0  0  0  0
   20.4785   -1.4535    0.0000 C   0  0  0  0  0  0  0  0  0  0  0  0
   21.1953   -1.8620    0.0000 C   0  0  0  0  0  0  0  0  0  0  0  0
   18.8819   -4.6355    0.0000 C   0  0  0  0  0  0  0  0  0  0  0  0
   18.8808   -5.4624    0.0000 C   0  0  0  0  0  0  0  0  0  0  0  0
   19.5952   -5.8751    0.0000 C   0  0  0  0  0  0  0  0  0  0  0  0
   20.3114   -5.4619    0.0000 C   0  0  0  0  0  0  0  0  0  0  0  0
   20.3086   -4.6318    0.0000 C   0  0  0  0  0  0  0  0  0  0  0  0
   19.5934   -4.2228    0.0000 C   0  0  0  0  0  0  0  0  0  0  0  0
   19.5888   -3.3946    0.0000 C   0  0  0  0  0  0  0  0  0  0  0  0
   20.2545   -2.9079    0.0000 N   0  0  0  0  0  0  0  0  0  0  0  0
   19.9974   -2.1244    0.0000 C   0  0  0  0  0  0  0  0  0  0  0  0
   19.1726   -2.1268    0.0000 N   0  0  0  0  0  0  0  0  0  0  0  0
   18.9202   -2.9119    0.0000 C   0  0  0  0  0  0  0  0  0  0  0  0
   19.5981   -6.6957    0.0000 O   0  0  0  0  0  0  0  0  0  0  0  0
   18.8853   -7.1104    0.0000 C   0  0  0  0  0  0  0  0  0  0  0  0
   18.8880   -7.9350    0.0000 F   0  0  0  0  0  0  0  0  0  0  0  0
   18.1698   -6.7005    0.0000 F   0  0  0  0  0  0  0  0  0  0  0  0
   18.1670   -7.5175    0.0000 F   0  0  0  0  0  0  0  0  0  0  0  0
   20.1424   -0.7035    0.0000 N   0  0  0  0  0  0  0  0  0  0  0  0
  2  1  1  0
  3  2  1  0
  4  5  2  0
  5  6  1  0
  6  7  2  0
  7  8  1  0
  8  9  2  0
  9  4  1  0
 10 11  1  0
 11 12  2  0
 12 13  1  0
 13 14  1  0
 14 10  2  0
  9 10  1  0
  6 15  1  0
 15 16  1  0
 16 17  1  0
 16 18  1  0
 16 19  1  0
 12  2  1  0
  2 20  1  0
M  END
> <chembl_id>
CHEMBL4084106

> <chembl_pref_name>
None

$$$$

     RDKit          2D

 25 27  0  0  0  0  0  0  0  0999 V2000
    6.4027   -1.9083    0.0000 C   0  0  0  0  0  0  0  0  0  0  0  0
    6.4016   -2.7357    0.0000 C   0  0  0  0  0  0  0  0  0  0  0  0
    7.1164   -3.1485    0.0000 N   0  0  0  0  0  0  0  0  0  0  0  0
    7.8328   -2.7352    0.0000 C   0  0  0  0  0  0  0  0  0  0  0  0
    7.8300   -1.9047    0.0000 C   0  0  0  0  0  0  0  0  0  0  0  0
    7.1146   -1.4955    0.0000 N   0  0  0  0  0  0  0  0  0  0  0  0
    8.5429   -1.4895    0.0000 C   0  0  0  0  0  0  0  0  0  0  0  0
    9.2589   -1.8993    0.0000 N   0  0  0  0  0  0  0  0  0  0  0  0
    8.5398   -0.6645    0.0000 O   0  0  0  0  0  0  0  0  0  0  0  0
    5.6903   -1.4961    0.0000 C   0  0  0  0  0  0  0  0  0  0  0  0
    5.6914   -0.6700    0.0000 C   0  0  0  0  0  0  0  0  0  0  0  0
    4.9777   -0.2578    0.0000 C   0  0  0  0  0  0  0  0  0  0  0  0
    4.2623   -0.6705    0.0000 C   0  0  0  0  0  0  0  0  0  0  0  0
    4.2652   -1.4998    0.0000 C   0  0  0  0  0  0  0  0  0  0  0  0
    4.9795   -1.9083    0.0000 C   0  0  0  0  0  0  0  0  0  0  0  0
    3.5472   -0.2591    0.0000 Cl  0  0  0  0  0  0  0  0  0  0  0  0
    9.9718   -1.4841    0.0000 C   0  0  0  0  0  0  0  0  0  0  0  0
   10.6878   -1.8939    0.0000 C   0  0  0  0  0  0  0  0  0  0  0  0
   11.4008   -1.4787    0.0000 C   0  0  0  0  0  0  0  0  0  0  0  0
   12.1127   -1.8903    0.0000 C   0  0  0  0  0  0  0  0  0  0  0  0
   12.8252   -1.4758    0.0000 C   0  0  0  0  0  0  0  0  0  0  0  0
   12.8225   -0.6499    0.0000 C   0  0  0  0  0  0  0  0  0  0  0  0
   12.1015   -0.2403    0.0000 C   0  0  0  0  0  0  0  0  0  0  0  0
   11.3920   -0.6571    0.0000 C   0  0  0  0  0  0  0  0  0  0  0  0
   13.5349   -0.2338    0.0000 Cl  0  0  0  0  0  0  0  0  0  0  0  0
 12 13  2  0
  1  2  2  0
 13 14  1  0
  5  7  1  0
 14 15  2  0
 15 10  1  0
  1 10  1  0
  3  4  2  0
 13 16  1  0
  7  8  1  0
  8 17  1  0
 17 18  1  0
  7  9  2  0
 18 19  1  0
  4  5  1  0
 19 20  2  0
  2  3  1  0
 20 21  1  0
 10 11  2  0
 21 22  2  0
  5  6  2  0
 22 23  1  0
 11 12  1  0
 23 24  2  0
 24 19  1  0
  6  1  1  0
 22 25  1  0
M  END
> <chembl_id>
CHEMBL1277607

> <chembl_pref_name>
None

$$$$

     RDKit          2D

 27 29  0  0  0  0  0  0  0  0999 V2000
    0.4385  -17.3924    0.0000 C   0  0  0  0  0  0  0  0  0  0  0  0
    1.1529  -17.8057    0.0000 C   0  0  0  0  0  0  0  0  0  0  0  0
    1.8653  -17.3912    0.0000 C   0  0  0  0  0  0  0  0  0  0  0  0
    1.8627  -16.5653    0.0000 C   0  0  0  0  0  0  0  0  0  0  0  0
    1.1416  -16.1557    0.0000 C   0  0  0  0  0  0  0  0  0  0  0  0
    0.4322  -16.5725    0.0000 C   0  0  0  0  0  0  0  0  0  0  0  0
   -3.1306  -17.8166    0.0000 C   0  0  0  0  0  0  0  0  0  0  0  0
   -3.1318  -18.6440    0.0000 C   0  0  0  0  0  0  0  0  0  0  0  0
   -2.4169  -19.0569    0.0000 N   0  0  0  0  0  0  0  0  0  0  0  0
   -1.7005  -18.6435    0.0000 C   0  0  0  0  0  0  0  0  0  0  0  0
   -1.7034  -17.8130    0.0000 C   0  0  0  0  0  0  0  0  0  0  0  0
   -2.4187  -17.4039    0.0000 N   0  0  0  0  0  0  0  0  0  0  0  0
   -0.9904  -17.3978    0.0000 C   0  0  0  0  0  0  0  0  0  0  0  0
   -0.2744  -17.8076    0.0000 N   0  0  0  0  0  0  0  0  0  0  0  0
   -0.9936  -16.5728    0.0000 O   0  0  0  0  0  0  0  0  0  0  0  0
   -3.8431  -17.4045    0.0000 C   0  0  0  0  0  0  0  0  0  0  0  0
   -3.8419  -16.5784    0.0000 C   0  0  0  0  0  0  0  0  0  0  0  0
   -4.5557  -16.1661    0.0000 C   0  0  0  0  0  0  0  0  0  0  0  0
   -5.2710  -16.5788    0.0000 C   0  0  0  0  0  0  0  0  0  0  0  0
   -5.2682  -17.4081    0.0000 C   0  0  0  0  0  0  0  0  0  0  0  0
   -4.5538  -17.8166    0.0000 C   0  0  0  0  0  0  0  0  0  0  0  0
    2.5812  -17.8013    0.0000 O   0  0  0  0  0  0  0  0  0  0  0  0
   -5.9861  -16.1675    0.0000 C   0  0  0  0  0  0  0  0  0  0  0  0
   -6.7042  -15.7542    0.0000 N   0  0  0  0  0  0  0  0  0  0  0  0
    3.2943  -17.3865    0.0000 C   0  0  0  0  0  0  0  0  0  0  0  0
    4.0101  -17.7966    0.0000 C   0  0  0  0  0  0  0  0  0  0  0  0
    3.2916  -16.5615    0.0000 C   0  0  0  0  0  0  0  0  0  0  0  0
  1  2  2  0
 13 14  1  0
  3  4  2  0
 13 15  2  0
  7  8  2  0
 16 17  2  0
  8  9  1  0
 17 18  1  0
  4  5  1  0
 18 19  2  0
  9 10  2  0
 19 20  1  0
  2  3  1  0
 20 21  2  0
 21 16  1  0
  7 16  1  0
 14  1  1  0
 10 11  1  0
  3 22  1  0
  5  6  2  0
 19 23  1  0
 11 12  2  0
 23 24  3  0
 12  7  1  0
 22 25  1  0
  6  1  1  0
 25 26  1  0
 11 13  1  0
 25 27  1  0
M  END
> <chembl_id>
CHEMBL1278045

> <chembl_pref_name>
None

$$$$

     RDKit          2D

 29 32  0  0  0  0  0  0  0  0999 V2000
    4.4527   -2.3916    0.0000 C   0  0  0  0  0  0  0  0  0  0  0  0
    4.4516   -3.2190    0.0000 C   0  0  0  0  0  0  0  0  0  0  0  0
    5.1664   -3.6319    0.0000 C   0  0  0  0  0  0  0  0  0  0  0  0
    5.8828   -3.2185    0.0000 C   0  0  0  0  0  0  0  0  0  0  0  0
    5.8800   -2.3880    0.0000 C   0  0  0  0  0  0  0  0  0  0  0  0
    5.1646   -1.9789    0.0000 C   0  0  0  0  0  0  0  0  0  0  0  0
    6.5944   -3.6291    0.0000 C   0  0  0  0  0  0  0  0  0  0  0  0
    6.5944   -4.4553    0.0000 C   0  0  0  0  0  0  0  0  0  0  0  0
    7.3086   -4.8666    0.0000 N   0  0  0  0  0  0  0  0  0  0  0  0
    8.0234   -4.4529    0.0000 C   0  0  0  0  0  0  0  0  0  0  0  0
    8.0195   -3.6236    0.0000 C   0  0  0  0  0  0  0  0  0  0  0  0
    7.3046   -3.2160    0.0000 C   0  0  0  0  0  0  0  0  0  0  0  0
    3.7382   -1.9793    0.0000 Cl  0  0  0  0  0  0  0  0  0  0  0  0
    8.7318   -3.2075    0.0000 C   0  0  0  0  0  0  0  0  0  0  0  0
    9.4484   -3.6163    0.0000 N   0  0  0  0  0  0  0  0  0  0  0  0
    8.7276   -2.3825    0.0000 O   0  0  0  0  0  0  0  0  0  0  0  0
   10.1608   -3.2002    0.0000 C   0  0  0  0  0  0  0  0  0  0  0  0
   10.8773   -3.6090    0.0000 C   0  0  0  0  0  0  0  0  0  0  0  0
   10.8764   -4.4344    0.0000 C   0  0  0  0  0  0  0  0  0  0  0  0
   11.5922   -4.8432    0.0000 C   0  0  0  0  0  0  0  0  0  0  0  0
   12.3055   -4.4270    0.0000 C   0  0  0  0  0  0  0  0  0  0  0  0
   12.2986   -3.5978    0.0000 N   0  0  0  0  0  0  0  0  0  0  0  0
   11.5823   -3.1927    0.0000 C   0  0  0  0  0  0  0  0  0  0  0  0
   11.5756   -2.3719    0.0000 N   0  0  0  0  0  0  0  0  0  0  0  0
   12.2880   -1.9539    0.0000 C   0  0  0  0  0  0  0  0  0  0  0  0
   12.2823   -1.1326    0.0000 C   0  0  0  0  0  0  0  0  0  0  0  0
   11.5658   -0.7229    0.0000 C   0  0  0  0  0  0  0  0  0  0  0  0
   10.8534   -1.1409    0.0000 C   0  0  0  0  0  0  0  0  0  0  0  0
   10.8575   -1.9685    0.0000 C   0  0  0  0  0  0  0  0  0  0  0  0
 11 14  1  0
  3  4  2  0
 14 15  1  0
  7  8  2  0
 14 16  2  0
 15 17  1  0
  8  9  1  0
 17 18  1  0
  4  5  1  0
 18 19  2  0
  9 10  2  0
 19 20  1  0
  2  3  1  0
 20 21  2  0
 10 11  1  0
 21 22  1  0
  5  6  2  0
 22 23  2  0
 23 18  1  0
 24 25  1  0
 11 12  2  0
 12  7  1  0
  4  7  1  0
  6  1  1  0
  1 13  1  0
  1  2  2  0
 24 29  1  0
 25 26  1  0
 26 27  1  0
 27 28  1  0
 28 29  1  0
 23 24  1  0
M  END
> <chembl_id>
CHEMBL1270301

> <chembl_pref_name>
None

$$$$

     RDKit          2D

 24 26  0  0  0  0  0  0  0  0999 V2000
   -4.8931    2.5792    0.0000 C   0  0  0  0  0  0  0  0  0  0  0  0
   -4.8943    1.7518    0.0000 C   0  0  0  0  0  0  0  0  0  0  0  0
   -4.1794    1.3390    0.0000 C   0  0  0  0  0  0  0  0  0  0  0  0
   -3.4630    1.7523    0.0000 C   0  0  0  0  0  0  0  0  0  0  0  0
   -3.4659    2.5828    0.0000 C   0  0  0  0  0  0  0  0  0  0  0  0
   -4.1812    2.9920    0.0000 C   0  0  0  0  0  0  0  0  0  0  0  0
   -2.7514    1.3417    0.0000 C   0  0  0  0  0  0  0  0  0  0  0  0
   -2.7515    0.5156    0.0000 C   0  0  0  0  0  0  0  0  0  0  0  0
   -2.0372    0.1043    0.0000 N   0  0  0  0  0  0  0  0  0  0  0  0
   -1.3224    0.5180    0.0000 C   0  0  0  0  0  0  0  0  0  0  0  0
   -1.3264    1.3472    0.0000 C   0  0  0  0  0  0  0  0  0  0  0  0
   -2.0412    1.7548    0.0000 C   0  0  0  0  0  0  0  0  0  0  0  0
   -5.6077    2.9915    0.0000 Cl  0  0  0  0  0  0  0  0  0  0  0  0
   -0.6140    1.7634    0.0000 C   0  0  0  0  0  0  0  0  0  0  0  0
    0.1026    1.3545    0.0000 N   0  0  0  0  0  0  0  0  0  0  0  0
   -0.6182    2.5883    0.0000 O   0  0  0  0  0  0  0  0  0  0  0  0
    0.8149    1.7706    0.0000 C   0  0  0  0  0  0  0  0  0  0  0  0
    1.5315    1.3618    0.0000 C   0  0  0  0  0  0  0  0  0  0  0  0
    1.5306    0.5364    0.0000 C   0  0  0  0  0  0  0  0  0  0  0  0
    2.2463    0.1276    0.0000 C   0  0  0  0  0  0  0  0  0  0  0  0
    2.9597    0.5438    0.0000 C   0  0  0  0  0  0  0  0  0  0  0  0
    2.9528    1.3731    0.0000 N   0  0  0  0  0  0  0  0  0  0  0  0
    2.2365    1.7781    0.0000 C   0  0  0  0  0  0  0  0  0  0  0  0
    2.2288    2.6031    0.0000 C   0  0  0  0  0  0  0  0  0  0  0  0
 12  7  1  0
  4  7  1  0
  6  1  1  0
  1 13  1  0
  1  2  2  0
 11 14  1  0
  3  4  2  0
 14 15  1  0
  7  8  2  0
 14 16  2  0
 15 17  1  0
  8  9  1  0
 17 18  1  0
  4  5  1  0
 18 19  2  0
  9 10  2  0
 19 20  1  0
  2  3  1  0
 20 21  2  0
 10 11  1  0
 21 22  1  0
  5  6  2  0
 22 23  2  0
 23 18  1  0
 11 12  2  0
 23 24  1  0
M  END
> <chembl_id>
CHEMBL1270099

> <chembl_pref_name>
None

$$$$

     RDKit          2D

 33 36  0  0  0  0  0  0  0  0999 V2000
    3.2786  -26.6868    0.0000 C   0  0  0  0  0  0  0  0  0  0  0  0
    3.9938  -27.0980    0.0000 C   0  0  0  0  0  0  0  0  0  0  0  0
    4.7070  -26.6855    0.0000 C   0  0  0  0  0  0  0  0  0  0  0  0
    4.7043  -25.8594    0.0000 N   0  0  0  0  0  0  0  0  0  0  0  0
    3.9825  -25.4476    0.0000 C   0  0  0  0  0  0  0  0  0  0  0  0
    3.2722  -25.8666    0.0000 C   0  0  0  0  0  0  0  0  0  0  0  0
    3.9766  -24.6224    0.0000 N   0  0  0  0  0  0  0  0  0  0  0  0
   -1.0133  -25.8809    0.0000 C   0  0  0  0  0  0  0  0  0  0  0  0
   -1.0145  -26.7086    0.0000 C   0  0  0  0  0  0  0  0  0  0  0  0
   -0.2989  -27.1194    0.0000 N   0  0  0  0  0  0  0  0  0  0  0  0
    0.4183  -26.7081    0.0000 C   0  0  0  0  0  0  0  0  0  0  0  0
    0.4155  -25.8773    0.0000 C   0  0  0  0  0  0  0  0  0  0  0  0
   -0.3007  -25.4660    0.0000 N   0  0  0  0  0  0  0  0  0  0  0  0
    1.1292  -25.4599    0.0000 C   0  0  0  0  0  0  0  0  0  0  0  0
    1.8459  -25.8719    0.0000 N   0  0  0  0  0  0  0  0  0  0  0  0
    1.1260  -24.6347    0.0000 O   0  0  0  0  0  0  0  0  0  0  0  0
   -1.7265  -25.4666    0.0000 C   0  0  0  0  0  0  0  0  0  0  0  0
   -1.7254  -24.6402    0.0000 C   0  0  0  0  0  0  0  0  0  0  0  0
   -2.4399  -24.2300    0.0000 C   0  0  0  0  0  0  0  0  0  0  0  0
   -3.1518  -24.6407    0.0000 C   0  0  0  0  0  0  0  0  0  0  0  0
   -3.1490  -25.4702    0.0000 C   0  0  0  0  0  0  0  0  0  0  0  0
   -2.4381  -25.8809    0.0000 C   0  0  0  0  0  0  0  0  0  0  0  0
   -3.8677  -24.2313    0.0000 O   0  0  0  0  0  0  0  0  0  0  0  0
   -4.5823  -24.6429    0.0000 C   0  0  0  0  0  0  0  0  0  0  0  0
   -4.5810  -25.4682    0.0000 F   0  0  0  0  0  0  0  0  0  0  0  0
   -5.2982  -24.2335    0.0000 F   0  0  0  0  0  0  0  0  0  0  0  0
   -5.2998  -25.0516    0.0000 F   0  0  0  0  0  0  0  0  0  0  0  0
    2.5555  -25.4546    0.0000 C   0  0  0  0  0  0  0  0  0  0  0  0
    4.6908  -24.2125    0.0000 C   0  0  0  0  0  0  0  0  0  0  0  0
    4.6867  -23.3909    0.0000 C   0  0  0  0  0  0  0  0  0  0  0  0
    3.9703  -22.9775    0.0000 O   0  0  0  0  0  0  0  0  0  0  0  0
    3.2563  -23.3962    0.0000 C   0  0  0  0  0  0  0  0  0  0  0  0
    3.2586  -24.2241    0.0000 C   0  0  0  0  0  0  0  0  0  0  0  0
  8  9  2  0
 17 18  2  0
  4  5  1  0
 18 19  1  0
  9 10  1  0
 19 20  2  0
  2  3  1  0
 20 21  1  0
 10 11  2  0
 21 22  2  0
 22 17  1  0
  8 17  1  0
  5  6  2  0
 20 23  1  0
 11 12  1  0
 23 24  1  0
  6  1  1  0
 24 25  1  0
 12 13  2  0
 24 26  1  0
 13  8  1  0
 24 27  1  0
  1  2  2  0
 15 28  1  0
 28  6  1  0
  7 29  1  0
 12 14  1  0
  5  7  1  0
 14 15  1  0
  3  4  2  0
 14 16  2  0
  7 33  1  0
 29 30  1  0
 30 31  1  0
 31 32  1  0
 32 33  1  0
M  END
> <chembl_id>
CHEMBL1276882

> <chembl_pref_name>
None

$$$$

     RDKit          2D

 25 27  0  0  0  0  0  0  0  0999 V2000
   16.2439  -12.0711    0.0000 C   0  0  0  0  0  0  0  0  0  0  0  0
   16.2427  -12.8985    0.0000 C   0  0  0  0  0  0  0  0  0  0  0  0
   16.9575  -13.3114    0.0000 N   0  0  0  0  0  0  0  0  0  0  0  0
   17.6740  -12.8980    0.0000 C   0  0  0  0  0  0  0  0  0  0  0  0
   17.6711  -12.0675    0.0000 C   0  0  0  0  0  0  0  0  0  0  0  0
   16.9557  -11.6584    0.0000 C   0  0  0  0  0  0  0  0  0  0  0  0
   14.0986  -10.8333    0.0000 C   0  0  0  0  0  0  0  0  0  0  0  0
   14.0974  -11.6607    0.0000 C   0  0  0  0  0  0  0  0  0  0  0  0
   14.8122  -12.0735    0.0000 C   0  0  0  0  0  0  0  0  0  0  0  0
   15.5287  -11.6602    0.0000 C   0  0  0  0  0  0  0  0  0  0  0  0
   15.5258  -10.8297    0.0000 C   0  0  0  0  0  0  0  0  0  0  0  0
   14.8104  -10.4205    0.0000 C   0  0  0  0  0  0  0  0  0  0  0  0
   18.2931  -11.6732    0.0000 C   0  0  0  0  0  0  0  0  0  0  0  0
   19.0053  -12.0895    0.0000 N   0  0  0  0  0  0  0  0  0  0  0  0
   18.2975  -10.8482    0.0000 O   0  0  0  0  0  0  0  0  0  0  0  0
   19.7220  -11.6808    0.0000 C   0  0  0  0  0  0  0  0  0  0  0  0
   20.4311  -12.0980    0.0000 C   0  0  0  0  0  0  0  0  0  0  0  0
   21.1472  -11.6900    0.0000 C   0  0  0  0  0  0  0  0  0  0  0  0
   21.1521  -10.8642    0.0000 C   0  0  0  0  0  0  0  0  0  0  0  0
   20.4349  -10.4480    0.0000 C   0  0  0  0  0  0  0  0  0  0  0  0
   19.7216  -10.8583    0.0000 C   0  0  0  0  0  0  0  0  0  0  0  0
   21.8593  -12.1067    0.0000 C   0  0  0  0  0  0  0  0  0  0  0  0
   20.4364   -9.6230    0.0000 C   0  0  0  0  0  0  0  0  0  0  0  0
   13.3846  -10.4215    0.0000 C   0  0  0  0  0  0  0  0  0  0  0  0
   12.6700  -10.0091    0.0000 N   0  0  0  0  0  0  0  0  0  0  0  0
 10  1  1  0
  6  1  1  0
  5 13  1  0
  1  2  2  0
 13 14  1  0
  3  4  2  0
 13 15  2  0
  7  8  2  0
 14 16  1  0
 16 17  2  0
  8  9  1  0
 17 18  1  0
  4  5  1  0
 18 19  2  0
  9 10  2  0
 19 20  1  0
  2  3  1  0
 20 21  2  0
 21 16  1  0
 10 11  1  0
 18 22  1  0
  5  6  2  0
 20 23  1  0
 11 12  2  0
 12  7  1  0
 24 25  3  0
  7 24  1  0
M  END
> <chembl_id>
CHEMBL1271309

> <chembl_pref_name>
None

$$$$

     RDKit          2D

 24 26  0  0  0  0  0  0  0  0999 V2000
   15.1766   -8.5415    0.0000 C   0  0  0  0  0  0  0  0  0  0  0  0
   16.0039   -8.5358    0.0000 C   0  0  0  0  0  0  0  0  0  0  0  0
   16.4109   -7.8175    0.0000 C   0  0  0  0  0  0  0  0  0  0  0  0
   15.9916   -7.1046    0.0000 C   0  0  0  0  0  0  0  0  0  0  0  0
   15.1611   -7.1143    0.0000 C   0  0  0  0  0  0  0  0  0  0  0  0
   14.7579   -7.8331    0.0000 C   0  0  0  0  0  0  0  0  0  0  0  0
   13.9330   -7.8424    0.0000 Cl  0  0  0  0  0  0  0  0  0  0  0  0
   17.2358   -7.8109    0.0000 C   0  0  0  0  0  0  0  0  0  0  0  0
   17.7288   -8.4730    0.0000 C   0  0  0  0  0  0  0  0  0  0  0  0
   18.5113   -8.2118    0.0000 C   0  0  0  0  0  0  0  0  0  0  0  0
   18.5047   -7.3867    0.0000 C   0  0  0  0  0  0  0  0  0  0  0  0
   17.7180   -7.1383    0.0000 O   0  0  0  0  0  0  0  0  0  0  0  0
   19.2138   -6.9731    0.0000 C   0  0  0  0  0  0  0  0  0  0  0  0
   19.9301   -7.3824    0.0000 N   0  0  0  0  0  0  0  0  0  0  0  0
   19.2101   -6.1481    0.0000 O   0  0  0  0  0  0  0  0  0  0  0  0
   19.9337   -8.2074    0.0000 C   0  0  0  0  0  0  0  0  0  0  0  0
   20.6500   -8.6167    0.0000 C   0  0  0  0  0  0  0  0  0  0  0  0
   20.6537   -9.4417    0.0000 C   0  0  0  0  0  0  0  0  0  0  0  0
   21.3700   -9.8510    0.0000 N   0  0  0  0  0  0  0  0  0  0  0  0
   21.3680  -10.6759    0.0000 C   0  0  0  0  0  0  0  0  0  0  0  0
   22.0802  -11.0851    0.0000 C   0  0  0  0  0  0  0  0  0  0  0  0
   22.7953  -10.6729    0.0000 C   0  0  0  0  0  0  0  0  0  0  0  0
   22.7936   -9.8470    0.0000 C   0  0  0  0  0  0  0  0  0  0  0  0
   22.0768   -9.4332    0.0000 C   0  0  0  0  0  0  0  0  0  0  0  0
 11 12  1  0
 12  8  1  0
  6  1  1  0
 11 13  1  0
  1  2  2  0
 13 14  1  0
  6  7  1  0
 13 15  2  0
  3  4  2  0
 14 16  1  0
  3  8  1  0
 16 17  1  0
  8  9  2  0
 17 18  1  0
 18 19  1  0
 19 20  1  0
  4  5  1  0
  2  3  1  0
  5  6  2  0
  9 10  1  0
 10 11  2  0
 19 24  1  0
 20 21  1  0
 21 22  1  0
 22 23  1  0
 23 24  1  0
M  END
> <chembl_id>
CHEMBL453468

> <chembl_pref_name>
None

$$$$

     RDKit          2D

 27 30  0  0  0  0  0  0  0  0999 V2000
   -2.2479   -5.9455    0.0000 C   0  0  0  0  0  0  0  0  0  0  0  0
   -1.4928   -5.6115    0.0000 O   0  0  0  0  0  0  0  0  0  0  0  0
   -0.9405   -6.2252    0.0000 C   0  0  0  0  0  0  0  0  0  0  0  0
   -1.3561   -6.9416    0.0000 C   0  0  0  0  0  0  0  0  0  0  0  0
   -2.1616   -6.7652    0.0000 C   0  0  0  0  0  0  0  0  0  0  0  0
   -2.9614   -5.5314    0.0000 C   0  0  0  0  0  0  0  0  0  0  0  0
   -3.6772   -5.9450    0.0000 C   0  0  0  0  0  0  0  0  0  0  0  0
   -4.3911   -5.5320    0.0000 C   0  0  0  0  0  0  0  0  0  0  0  0
   -4.3905   -4.7056    0.0000 C   0  0  0  0  0  0  0  0  0  0  0  0
   -3.6700   -4.2939    0.0000 C   0  0  0  0  0  0  0  0  0  0  0  0
   -2.9590   -4.7093    0.0000 C   0  0  0  0  0  0  0  0  0  0  0  0
   -0.1194   -6.1400    0.0000 C   0  0  0  0  0  0  0  0  0  0  0  0
    0.2173   -5.3862    0.0000 O   0  0  0  0  0  0  0  0  0  0  0  0
    0.3650   -6.8084    0.0000 N   0  0  0  0  0  0  0  0  0  0  0  0
    1.1862   -6.7231    0.0000 C   0  0  0  0  0  0  0  0  0  0  0  0
    1.5183   -5.9705    0.0000 C   0  0  0  0  0  0  0  0  0  0  0  0
    2.3386   -5.8849    0.0000 C   0  0  0  0  0  0  0  0  0  0  0  0
    2.8239   -6.5539    0.0000 C   0  0  0  0  0  0  0  0  0  0  0  0
    2.4831   -7.3104    0.0000 C   0  0  0  0  0  0  0  0  0  0  0  0
    1.6638   -7.3924    0.0000 C   0  0  0  0  0  0  0  0  0  0  0  0
   -5.1043   -4.2910    0.0000 Cl  0  0  0  0  0  0  0  0  0  0  0  0
    2.6749   -5.1310    0.0000 N   0  0  0  0  0  0  0  0  0  0  0  0
    3.4967   -5.0490    0.0000 C   0  0  0  0  0  0  0  0  0  0  0  0
    3.8333   -4.2992    0.0000 C   0  0  0  0  0  0  0  0  0  0  0  0
    3.3518   -3.6282    0.0000 O   0  0  0  0  0  0  0  0  0  0  0  0
    2.5295   -3.7120    0.0000 C   0  0  0  0  0  0  0  0  0  0  0  0
    2.1888   -4.4669    0.0000 C   0  0  0  0  0  0  0  0  0  0  0  0
 12 13  2  0
  6  7  2  0
 12 14  1  0
  2  3  1  0
 14 15  1  0
  7  8  1  0
 15 16  2  0
  3  4  2  0
 16 17  1  0
  8  9  2  0
 17 18  2  0
  4  5  1  0
 18 19  1  0
  9 10  1  0
 19 20  2  0
 20 15  1  0
  5  1  2  0
  9 21  1  0
 10 11  2  0
 17 22  1  0
 22 23  1  0
 11  6  1  0
  1  6  1  0
  1  2  1  0
  3 12  1  0
 22 27  1  0
 23 24  1  0
 24 25  1  0
 25 26  1  0
 26 27  1  0
M  END
> <chembl_id>
CHEMBL400328

> <chembl_pref_name>
None

$$$$

     RDKit          2D

 23 25  0  0  0  0  0  0  0  0999 V2000
   -6.5089  -13.5978    0.0000 C   0  0  0  0  0  0  0  0  0  0  0  0
   -5.6786  -13.5921    0.0000 C   0  0  0  0  0  0  0  0  0  0  0  0
   -5.2717  -12.8740    0.0000 C   0  0  0  0  0  0  0  0  0  0  0  0
   -5.6909  -12.1611    0.0000 C   0  0  0  0  0  0  0  0  0  0  0  0
   -6.5268  -12.1708    0.0000 C   0  0  0  0  0  0  0  0  0  0  0  0
   -6.9319  -12.8895    0.0000 C   0  0  0  0  0  0  0  0  0  0  0  0
   -7.7568  -12.8988    0.0000 Cl  0  0  0  0  0  0  0  0  0  0  0  0
   -4.4468  -12.8673    0.0000 C   0  0  0  0  0  0  0  0  0  0  0  0
   -3.9539  -13.5294    0.0000 C   0  0  0  0  0  0  0  0  0  0  0  0
   -3.1715  -13.2681    0.0000 C   0  0  0  0  0  0  0  0  0  0  0  0
   -3.1781  -12.4432    0.0000 C   0  0  0  0  0  0  0  0  0  0  0  0
   -3.9647  -12.1948    0.0000 O   0  0  0  0  0  0  0  0  0  0  0  0
   -2.4692  -12.0297    0.0000 C   0  0  0  0  0  0  0  0  0  0  0  0
   -1.7530  -12.4389    0.0000 N   0  0  0  0  0  0  0  0  0  0  0  0
   -2.4729  -11.2048    0.0000 O   0  0  0  0  0  0  0  0  0  0  0  0
   -1.7522  -13.2657    0.0000 C   0  0  0  0  0  0  0  0  0  0  0  0
   -1.0401  -13.6749    0.0000 C   0  0  0  0  0  0  0  0  0  0  0  0
   -0.3253  -13.2628    0.0000 C   0  0  0  0  0  0  0  0  0  0  0  0
   -0.3270  -12.4369    0.0000 C   0  0  0  0  0  0  0  0  0  0  0  0
   -1.0436  -12.0232    0.0000 C   0  0  0  0  0  0  0  0  0  0  0  0
    0.3894  -13.6748    0.0000 N   0  0  0  0  0  0  0  0  0  0  0  0
    0.3899  -14.4996    0.0000 C   0  0  0  0  0  0  0  0  0  0  0  0
    1.1035  -13.2618    0.0000 C   0  0  0  0  0  0  0  0  0  0  0  0
 10 11  2  0
 11 12  1  0
 12  8  1  0
  6  1  1  0
 11 13  1  0
  1  2  2  0
 13 14  1  0
  6  7  1  0
 13 15  2  0
 14 16  1  0
  3  4  2  0
  3  8  1  0
  8  9  2  0
  4  5  1  0
 14 20  1  0
 16 17  1  0
 17 18  1  0
 18 19  1  0
 19 20  1  0
  2  3  1  0
 18 21  1  0
  5  6  2  0
 21 22  1  0
  9 10  1  0
 21 23  1  0
M  END
> <chembl_id>
CHEMBL251067

> <chembl_pref_name>
None

$$$$

     RDKit          2D

 20 22  0  0  0  0  0  0  0  0999 V2000
   -3.4604    0.4834    0.0000 C   0  0  0  0  0  0  0  0  0  0  0  0
   -2.6332    0.4891    0.0000 C   0  0  0  0  0  0  0  0  0  0  0  0
   -2.2263    1.2073    0.0000 C   0  0  0  0  0  0  0  0  0  0  0  0
   -2.6455    1.9201    0.0000 C   0  0  0  0  0  0  0  0  0  0  0  0
   -3.4759    1.9104    0.0000 C   0  0  0  0  0  0  0  0  0  0  0  0
   -3.8790    1.1917    0.0000 C   0  0  0  0  0  0  0  0  0  0  0  0
   -4.7038    1.1824    0.0000 Cl  0  0  0  0  0  0  0  0  0  0  0  0
   -1.4015    1.2139    0.0000 C   0  0  0  0  0  0  0  0  0  0  0  0
   -0.9086    0.5519    0.0000 C   0  0  0  0  0  0  0  0  0  0  0  0
   -0.1262    0.8131    0.0000 C   0  0  0  0  0  0  0  0  0  0  0  0
   -0.1328    1.6380    0.0000 C   0  0  0  0  0  0  0  0  0  0  0  0
   -0.9194    1.8864    0.0000 O   0  0  0  0  0  0  0  0  0  0  0  0
    0.5762    2.0516    0.0000 C   0  0  0  0  0  0  0  0  0  0  0  0
    1.2924    1.6423    0.0000 N   0  0  0  0  0  0  0  0  0  0  0  0
    0.5725    2.8765    0.0000 O   0  0  0  0  0  0  0  0  0  0  0  0
    1.2931    0.8155    0.0000 C   0  0  0  0  0  0  0  0  0  0  0  0
    2.0052    0.4063    0.0000 C   0  0  0  0  0  0  0  0  0  0  0  0
    2.7202    0.8185    0.0000 N   0  0  0  0  0  0  0  0  0  0  0  0
    2.7184    1.6442    0.0000 C   0  0  0  0  0  0  0  0  0  0  0  0
    2.0018    2.0580    0.0000 C   0  0  0  0  0  0  0  0  0  0  0  0
  2  3  1  0
  5  6  2  0
  9 10  1  0
 10 11  2  0
 11 12  1  0
 12  8  1  0
  6  1  1  0
 11 13  1  0
  1  2  2  0
 13 14  1  0
  6  7  1  0
 13 15  2  0
 14 16  1  0
  3  4  2  0
  3  8  1  0
  8  9  2  0
  4  5  1  0
 14 20  1  0
 16 17  1  0
 17 18  1  0
 18 19  1  0
 19 20  1  0
M  END
> <chembl_id>
CHEMBL521211

> <chembl_pref_name>
None

$$$$

     RDKit          2D

 24 26  0  0  0  0  0  0  0  0999 V2000
    0.6427   -2.6049    0.0000 C   0  0  0  0  0  0  0  0  0  0  0  0
    1.3571   -3.0182    0.0000 C   0  0  0  0  0  0  0  0  0  0  0  0
    2.0695   -2.6037    0.0000 C   0  0  0  0  0  0  0  0  0  0  0  0
    2.0668   -1.7778    0.0000 C   0  0  0  0  0  0  0  0  0  0  0  0
    1.3458   -1.3682    0.0000 C   0  0  0  0  0  0  0  0  0  0  0  0
    0.6363   -1.7850    0.0000 C   0  0  0  0  0  0  0  0  0  0  0  0
    1.3398   -0.5432    0.0000 C   0  0  0  0  0  0  0  0  0  0  0  0
   -3.6514   -1.8000    0.0000 C   0  0  0  0  0  0  0  0  0  0  0  0
   -3.6526   -2.6273    0.0000 C   0  0  0  0  0  0  0  0  0  0  0  0
   -2.9378   -3.0402    0.0000 N   0  0  0  0  0  0  0  0  0  0  0  0
   -2.2213   -2.6269    0.0000 C   0  0  0  0  0  0  0  0  0  0  0  0
   -2.2242   -1.7963    0.0000 C   0  0  0  0  0  0  0  0  0  0  0  0
   -2.9396   -1.3872    0.0000 N   0  0  0  0  0  0  0  0  0  0  0  0
   -1.5113   -1.3811    0.0000 C   0  0  0  0  0  0  0  0  0  0  0  0
   -0.7953   -1.7909    0.0000 N   0  0  0  0  0  0  0  0  0  0  0  0
   -1.5144   -0.5561    0.0000 O   0  0  0  0  0  0  0  0  0  0  0  0
   -4.3639   -1.3878    0.0000 C   0  0  0  0  0  0  0  0  0  0  0  0
   -4.3628   -0.5617    0.0000 C   0  0  0  0  0  0  0  0  0  0  0  0
   -5.0765   -0.1494    0.0000 C   0  0  0  0  0  0  0  0  0  0  0  0
   -5.7918   -0.5622    0.0000 C   0  0  0  0  0  0  0  0  0  0  0  0
   -5.7890   -1.3914    0.0000 C   0  0  0  0  0  0  0  0  0  0  0  0
   -5.0747   -1.7999    0.0000 C   0  0  0  0  0  0  0  0  0  0  0  0
   -6.5097   -0.1508    0.0000 Cl  0  0  0  0  0  0  0  0  0  0  0  0
   -0.0823   -1.3758    0.0000 C   0  0  0  0  0  0  0  0  0  0  0  0
  6  1  1  0
 12 13  2  0
 13  8  1  0
  1  2  2  0
 12 14  1  0
  5  7  1  0
 14 15  1  0
  3  4  2  0
 14 16  2  0
  8  9  2  0
 17 18  2  0
  4  5  1  0
 18 19  1  0
  9 10  1  0
 19 20  2  0
  2  3  1  0
 20 21  1  0
 10 11  2  0
 21 22  2  0
 22 17  1  0
  8 17  1  0
  5  6  2  0
 20 23  1  0
 11 12  1  0
 15 24  1  0
 24  6  1  0
M  END
> <chembl_id>
CHEMBL1277606

> <chembl_pref_name>
None

$$$$

     RDKit          2D

 26 28  0  0  0  0  0  0  0  0999 V2000
   21.0135   -9.4174    0.0000 C   0  0  0  0  0  0  0  0  0  0  0  0
   21.7279   -9.8307    0.0000 C   0  0  0  0  0  0  0  0  0  0  0  0
   22.4403   -9.4162    0.0000 C   0  0  0  0  0  0  0  0  0  0  0  0
   22.4377   -8.5903    0.0000 C   0  0  0  0  0  0  0  0  0  0  0  0
   21.7166   -8.1807    0.0000 C   0  0  0  0  0  0  0  0  0  0  0  0
   21.0072   -8.5975    0.0000 C   0  0  0  0  0  0  0  0  0  0  0  0
   17.4444   -9.8416    0.0000 C   0  0  0  0  0  0  0  0  0  0  0  0
   17.4432  -10.6690    0.0000 C   0  0  0  0  0  0  0  0  0  0  0  0
   18.1581  -11.0819    0.0000 N   0  0  0  0  0  0  0  0  0  0  0  0
   18.8745  -10.6685    0.0000 C   0  0  0  0  0  0  0  0  0  0  0  0
   18.8716   -9.8380    0.0000 C   0  0  0  0  0  0  0  0  0  0  0  0
   18.1563   -9.4289    0.0000 N   0  0  0  0  0  0  0  0  0  0  0  0
   19.5846   -9.4228    0.0000 C   0  0  0  0  0  0  0  0  0  0  0  0
   20.3006   -9.8326    0.0000 N   0  0  0  0  0  0  0  0  0  0  0  0
   19.5814   -8.5978    0.0000 O   0  0  0  0  0  0  0  0  0  0  0  0
   16.7319   -9.4295    0.0000 C   0  0  0  0  0  0  0  0  0  0  0  0
   16.7331   -8.6034    0.0000 C   0  0  0  0  0  0  0  0  0  0  0  0
   16.0193   -8.1911    0.0000 C   0  0  0  0  0  0  0  0  0  0  0  0
   15.3040   -8.6038    0.0000 C   0  0  0  0  0  0  0  0  0  0  0  0
   15.3068   -9.4331    0.0000 C   0  0  0  0  0  0  0  0  0  0  0  0
   16.0212   -9.8416    0.0000 C   0  0  0  0  0  0  0  0  0  0  0  0
   14.5889   -8.1925    0.0000 O   0  0  0  0  0  0  0  0  0  0  0  0
   13.8750   -8.6061    0.0000 C   0  0  0  0  0  0  0  0  0  0  0  0
   21.7106   -7.3557    0.0000 C   0  0  0  0  0  0  0  0  0  0  0  0
   23.1562   -9.8263    0.0000 C   0  0  0  0  0  0  0  0  0  0  0  0
   13.1599   -8.1947    0.0000 C   0  0  0  0  0  0  0  0  0  0  0  0
 11 13  1  0
  1  2  2  0
 13 14  1  0
  3  4  2  0
 13 15  2  0
  7  8  2  0
 16 17  2  0
  8  9  1  0
 17 18  1  0
  4  5  1  0
 18 19  2  0
  9 10  2  0
 19 20  1  0
  2  3  1  0
 20 21  2  0
 21 16  1  0
  7 16  1  0
 10 11  1  0
 19 22  1  0
  5  6  2  0
 22 23  1  0
 14  1  1  0
 11 12  2  0
  5 24  1  0
 12  7  1  0
  3 25  1  0
  6  1  1  0
 23 26  1  0
M  END
> <chembl_id>
CHEMBL1277877

> <chembl_pref_name>
None

$$$$

     RDKit          2D

 24 26  0  0  0  0  0  0  0  0999 V2000
    4.6585   -4.1925    0.0000 C   0  0  0  0  0  0  0  0  0  0  0  0
    5.4080   -4.5387    0.0000 O   0  0  0  0  0  0  0  0  0  0  0  0
    5.9703   -3.9340    0.0000 C   0  0  0  0  0  0  0  0  0  0  0  0
    5.5663   -3.2109    0.0000 C   0  0  0  0  0  0  0  0  0  0  0  0
    4.7580   -3.3743    0.0000 C   0  0  0  0  0  0  0  0  0  0  0  0
    3.9383   -4.5949    0.0000 C   0  0  0  0  0  0  0  0  0  0  0  0
    3.2293   -4.1698    0.0000 C   0  0  0  0  0  0  0  0  0  0  0  0
    2.5086   -4.5712    0.0000 C   0  0  0  0  0  0  0  0  0  0  0  0
    2.4958   -5.3975    0.0000 C   0  0  0  0  0  0  0  0  0  0  0  0
    3.2095   -5.8209    0.0000 C   0  0  0  0  0  0  0  0  0  0  0  0
    3.9273   -5.4171    0.0000 C   0  0  0  0  0  0  0  0  0  0  0  0
    6.7900   -4.0326    0.0000 C   0  0  0  0  0  0  0  0  0  0  0  0
    7.2853   -3.3721    0.0000 N   0  0  0  0  0  0  0  0  0  0  0  0
    8.1049   -3.4707    0.0000 C   0  0  0  0  0  0  0  0  0  0  0  0
    8.4248   -4.2287    0.0000 C   0  0  0  0  0  0  0  0  0  0  0  0
    9.2437   -4.3275    0.0000 C   0  0  0  0  0  0  0  0  0  0  0  0
    9.7398   -3.6666    0.0000 C   0  0  0  0  0  0  0  0  0  0  0  0
    9.4113   -2.9045    0.0000 C   0  0  0  0  0  0  0  0  0  0  0  0
    8.5934   -2.8092    0.0000 C   0  0  0  0  0  0  0  0  0  0  0  0
    9.5677   -5.0869    0.0000 C   0  0  0  0  0  0  0  0  0  0  0  0
    1.7753   -5.8006    0.0000 Cl  0  0  0  0  0  0  0  0  0  0  0  0
    7.1144   -4.7918    0.0000 N   0  0  0  0  0  0  0  0  0  0  0  0
    6.6191   -5.4524    0.0000 C   0  0  0  0  0  0  0  0  0  0  0  0
    6.1276   -6.1123    0.0000 N   0  0  0  0  0  0  0  0  0  0  0  0
  6  7  2  0
 12 13  1  0
  2  3  1  0
 13 14  1  0
  7  8  1  0
 14 15  2  0
  3  4  2  0
 15 16  1  0
  8  9  2  0
 16 17  2  0
  4  5  1  0
 17 18  1  0
  9 10  1  0
 18 19  2  0
 19 14  1  0
  5  1  2  0
 16 20  1  0
 10 11  2  0
  9 21  1  0
 11  6  1  0
  1  6  1  0
 12 22  2  0
  1  2  1  0
 22 23  1  0
  3 12  1  0
 23 24  3  0
M  END
> <chembl_id>
CHEMBL255023

> <chembl_pref_name>
None

$$$$

     RDKit          2D

 22 24  0  0  0  0  0  0  0  0999 V2000
   10.1567   -0.0791    0.0000 C   0  0  0  0  0  0  0  0  0  0  0  0
   10.9115    0.2547    0.0000 O   0  0  0  0  0  0  0  0  0  0  0  0
   11.4636   -0.3588    0.0000 C   0  0  0  0  0  0  0  0  0  0  0  0
   11.0482   -1.0749    0.0000 C   0  0  0  0  0  0  0  0  0  0  0  0
   10.2429   -0.8986    0.0000 C   0  0  0  0  0  0  0  0  0  0  0  0
    9.4434    0.3348    0.0000 C   0  0  0  0  0  0  0  0  0  0  0  0
    8.7279   -0.0786    0.0000 C   0  0  0  0  0  0  0  0  0  0  0  0
    8.0141    0.3342    0.0000 C   0  0  0  0  0  0  0  0  0  0  0  0
    8.0147    1.1604    0.0000 C   0  0  0  0  0  0  0  0  0  0  0  0
    8.7351    1.5719    0.0000 C   0  0  0  0  0  0  0  0  0  0  0  0
    9.4458    1.1567    0.0000 C   0  0  0  0  0  0  0  0  0  0  0  0
   12.2844   -0.2736    0.0000 C   0  0  0  0  0  0  0  0  0  0  0  0
   12.6210    0.4799    0.0000 O   0  0  0  0  0  0  0  0  0  0  0  0
   12.7687   -0.9418    0.0000 N   0  0  0  0  0  0  0  0  0  0  0  0
   13.5895   -0.8565    0.0000 C   0  0  0  0  0  0  0  0  0  0  0  0
   13.9215   -0.1041    0.0000 N   0  0  0  0  0  0  0  0  0  0  0  0
   14.7416   -0.0186    0.0000 C   0  0  0  0  0  0  0  0  0  0  0  0
   14.0670   -1.5256    0.0000 C   0  0  0  0  0  0  0  0  0  0  0  0
    7.3012    1.5748    0.0000 Cl  0  0  0  0  0  0  0  0  0  0  0  0
   15.2268   -0.6858    0.0000 C   0  0  0  0  0  0  0  0  0  0  0  0
   14.8860   -1.4436    0.0000 C   0  0  0  0  0  0  0  0  0  0  0  0
   15.3682   -2.1133    0.0000 C   0  0  0  0  0  0  0  0  0  0  0  0
 11  6  1  0
  1  6  1  0
  1  2  1  0
  3 12  1  0
 12 13  2  0
  6  7  2  0
 12 14  1  0
  2  3  1  0
 14 15  1  0
  7  8  1  0
 15 16  2  0
  3  4  2  0
 16 17  1  0
 17 20  2  0
  8  9  2  0
 21 18  2  0
 18 15  1  0
  4  5  1  0
  9 19  1  0
 20 21  1  0
  9 10  1  0
  5  1  2  0
 10 11  2  0
 21 22  1  0
M  END
> <chembl_id>
CHEMBL250048

> <chembl_pref_name>
None

$$$$

     RDKit          2D

 23 24  0  0  0  0  0  0  0  0999 V2000
    3.5550    0.0000    0.0000 Cl  0  0  0  0  0  0  0  0  0  0  0  0
    0.6013    1.2033    0.0000 C   0  0  0  0  0  0  0  0  0  0  0  0
    0.1888   -0.0662    0.0000 C   0  0  0  0  0  0  0  0  0  0  0  0
    1.0138   -0.0662    0.0000 C   0  0  0  0  0  0  0  0  0  0  0  0
    1.2687    0.7184    0.0000 C   0  0  0  0  0  0  0  0  0  0  0  0
    0.6013    2.0283    0.0000 C   0  0  0  0  0  0  0  0  0  0  0  0
   -0.1132    2.4408    0.0000 C   0  0  0  0  0  0  0  0  0  0  0  0
   -0.1132    3.2658    0.0000 C   0  0  0  0  0  0  0  0  0  0  0  0
    0.6013    3.6783    0.0000 C   0  0  0  0  0  0  0  0  0  0  0  0
    1.3157    3.2658    0.0000 C   0  0  0  0  0  0  0  0  0  0  0  0
    1.3157    2.4408    0.0000 C   0  0  0  0  0  0  0  0  0  0  0  0
   -0.2961   -0.7336    0.0000 C   0  0  0  0  0  0  0  0  0  0  0  0
    0.0394   -1.4873    0.0000 N   0  0  0  0  0  0  0  0  0  0  0  0
   -0.4455   -2.1548    0.0000 C   0  0  0  0  0  0  0  0  0  0  0  0
   -0.1100   -2.9084    0.0000 C   0  0  0  0  0  0  0  0  0  0  0  0
   -0.5949   -3.5759    0.0000 C   0  0  0  0  0  0  0  0  0  0  0  0
   -1.4154   -3.4896    0.0000 C   0  0  0  0  0  0  0  0  0  0  0  0
   -1.7509   -2.7360    0.0000 C   0  0  0  0  0  0  0  0  0  0  0  0
   -1.2660   -2.0685    0.0000 C   0  0  0  0  0  0  0  0  0  0  0  0
   -0.2593   -4.3295    0.0000 C   0  0  0  0  0  0  0  0  0  0  0  0
    0.6013    4.5033    0.0000 Cl  0  0  0  0  0  0  0  0  0  0  0  0
   -1.1166   -0.6474    0.0000 N   0  0  0  0  0  0  0  0  0  0  0  0
   -0.0662    0.7184    0.0000 O   0  0  0  0  0  0  0  0  0  0  0  0
  3  4  2  0
  2  5  2  0
  4  5  1  0
  2  6  1  0
  6  7  2  0
  7  8  1  0
  8  9  2  0
  9 10  1  0
  6 11  1  0
 10 11  2  0
  3 12  1  0
 12 13  1  0
 13 14  1  0
 14 15  2  0
 15 16  1  0
 16 17  2  0
 17 18  1  0
 14 19  1  0
 18 19  2  0
 16 20  1  0
  9 21  1  0
 12 22  2  0
  2 23  1  0
  3 23  1  0
M  END
> <chembl_id>
CHEMBL539863

> <chembl_pref_name>
None

$$$$

     RDKit          2D

 23 25  0  0  0  0  0  0  0  0999 V2000
   -4.8098  -18.1125    0.0000 C   0  0  0  0  0  0  0  0  0  0  0  0
   -4.8109  -18.9398    0.0000 C   0  0  0  0  0  0  0  0  0  0  0  0
   -4.0961  -19.3527    0.0000 C   0  0  0  0  0  0  0  0  0  0  0  0
   -3.3797  -18.9394    0.0000 C   0  0  0  0  0  0  0  0  0  0  0  0
   -3.3825  -18.1088    0.0000 C   0  0  0  0  0  0  0  0  0  0  0  0
   -4.0979  -17.6997    0.0000 C   0  0  0  0  0  0  0  0  0  0  0  0
   -2.6681  -19.3500    0.0000 C   0  0  0  0  0  0  0  0  0  0  0  0
   -2.6681  -20.1761    0.0000 C   0  0  0  0  0  0  0  0  0  0  0  0
   -1.9539  -20.5874    0.0000 N   0  0  0  0  0  0  0  0  0  0  0  0
   -1.2391  -20.1737    0.0000 C   0  0  0  0  0  0  0  0  0  0  0  0
   -1.2430  -19.3444    0.0000 C   0  0  0  0  0  0  0  0  0  0  0  0
   -1.9579  -18.9369    0.0000 C   0  0  0  0  0  0  0  0  0  0  0  0
   -5.5243  -17.7001    0.0000 Cl  0  0  0  0  0  0  0  0  0  0  0  0
   -0.5307  -18.9283    0.0000 C   0  0  0  0  0  0  0  0  0  0  0  0
    0.1859  -19.3372    0.0000 N   0  0  0  0  0  0  0  0  0  0  0  0
   -0.5349  -18.1033    0.0000 O   0  0  0  0  0  0  0  0  0  0  0  0
    0.8983  -18.9210    0.0000 C   0  0  0  0  0  0  0  0  0  0  0  0
    1.6148  -19.3299    0.0000 C   0  0  0  0  0  0  0  0  0  0  0  0
    1.6139  -20.1553    0.0000 C   0  0  0  0  0  0  0  0  0  0  0  0
    2.3297  -20.5640    0.0000 C   0  0  0  0  0  0  0  0  0  0  0  0
    3.0430  -20.1478    0.0000 C   0  0  0  0  0  0  0  0  0  0  0  0
    3.0361  -19.3186    0.0000 C   0  0  0  0  0  0  0  0  0  0  0  0
    2.3198  -18.9136    0.0000 C   0  0  0  0  0  0  0  0  0  0  0  0
 11 12  2  0
 12  7  1  0
  4  7  1  0
  6  1  1  0
  1 13  1  0
  1  2  2  0
 11 14  1  0
  3  4  2  0
 14 15  1  0
  7  8  2  0
 14 16  2  0
 15 17  1  0
  8  9  1  0
 17 18  1  0
  4  5  1  0
 18 19  2  0
  9 10  2  0
 19 20  1  0
  2  3  1  0
 20 21  2  0
 10 11  1  0
 21 22  1  0
  5  6  2  0
 22 23  2  0
 23 18  1  0
M  END
> <chembl_id>
CHEMBL1271417

> <chembl_pref_name>
None

$$$$

     RDKit          2D

 24 26  0  0  0  0  0  0  0  0999 V2000
    4.6986  -18.6583    0.0000 C   0  0  0  0  0  0  0  0  0  0  0  0
    4.6974  -19.4857    0.0000 C   0  0  0  0  0  0  0  0  0  0  0  0
    5.4122  -19.8985    0.0000 C   0  0  0  0  0  0  0  0  0  0  0  0
    6.1287  -19.4852    0.0000 C   0  0  0  0  0  0  0  0  0  0  0  0
    6.1258  -18.6547    0.0000 C   0  0  0  0  0  0  0  0  0  0  0  0
    5.4104  -18.2455    0.0000 C   0  0  0  0  0  0  0  0  0  0  0  0
    6.8402  -19.8958    0.0000 C   0  0  0  0  0  0  0  0  0  0  0  0
    6.8402  -20.7219    0.0000 C   0  0  0  0  0  0  0  0  0  0  0  0
    7.5545  -21.1332    0.0000 N   0  0  0  0  0  0  0  0  0  0  0  0
    8.2693  -20.7195    0.0000 C   0  0  0  0  0  0  0  0  0  0  0  0
    8.2653  -19.8903    0.0000 C   0  0  0  0  0  0  0  0  0  0  0  0
    7.5505  -19.4827    0.0000 C   0  0  0  0  0  0  0  0  0  0  0  0
    3.9840  -18.2460    0.0000 Cl  0  0  0  0  0  0  0  0  0  0  0  0
    8.9777  -19.4741    0.0000 C   0  0  0  0  0  0  0  0  0  0  0  0
    9.6942  -19.8830    0.0000 N   0  0  0  0  0  0  0  0  0  0  0  0
    8.9735  -18.6492    0.0000 O   0  0  0  0  0  0  0  0  0  0  0  0
   10.4066  -19.4669    0.0000 C   0  0  0  0  0  0  0  0  0  0  0  0
   11.1232  -19.8757    0.0000 C   0  0  0  0  0  0  0  0  0  0  0  0
   11.1223  -20.7011    0.0000 C   0  0  0  0  0  0  0  0  0  0  0  0
   11.8380  -21.1099    0.0000 C   0  0  0  0  0  0  0  0  0  0  0  0
   12.5513  -20.6937    0.0000 C   0  0  0  0  0  0  0  0  0  0  0  0
   12.5445  -19.8644    0.0000 C   0  0  0  0  0  0  0  0  0  0  0  0
   11.8282  -19.4594    0.0000 C   0  0  0  0  0  0  0  0  0  0  0  0
   11.8204  -18.6344    0.0000 C   0  0  0  0  0  0  0  0  0  0  0  0
 12  7  1  0
  4  7  1  0
  6  1  1  0
  1 13  1  0
  1  2  2  0
 11 14  1  0
  3  4  2  0
 14 15  1  0
  7  8  2  0
 14 16  2  0
 15 17  1  0
  8  9  1  0
 17 18  1  0
  4  5  1  0
 18 19  2  0
  9 10  2  0
 19 20  1  0
  2  3  1  0
 20 21  2  0
 10 11  1  0
 21 22  1  0
  5  6  2  0
 22 23  2  0
 23 18  1  0
 11 12  2  0
 23 24  1  0
M  END
> <chembl_id>
CHEMBL1269882

> <chembl_pref_name>
None

$$$$

     RDKit          2D

 27 29  0  0  0  0  0  0  0  0999 V2000
    2.7218  -21.8008    0.0000 C   0  0  0  0  0  0  0  0  0  0  0  0
    3.4362  -22.2140    0.0000 C   0  0  0  0  0  0  0  0  0  0  0  0
    4.1487  -21.7995    0.0000 C   0  0  0  0  0  0  0  0  0  0  0  0
    4.1460  -20.9736    0.0000 C   0  0  0  0  0  0  0  0  0  0  0  0
    3.4250  -20.5640    0.0000 C   0  0  0  0  0  0  0  0  0  0  0  0
    2.7155  -20.9808    0.0000 C   0  0  0  0  0  0  0  0  0  0  0  0
   -0.8473  -22.2250    0.0000 C   0  0  0  0  0  0  0  0  0  0  0  0
   -0.8484  -23.0523    0.0000 C   0  0  0  0  0  0  0  0  0  0  0  0
   -0.1336  -23.4652    0.0000 N   0  0  0  0  0  0  0  0  0  0  0  0
    0.5828  -23.0519    0.0000 C   0  0  0  0  0  0  0  0  0  0  0  0
    0.5800  -22.2213    0.0000 C   0  0  0  0  0  0  0  0  0  0  0  0
   -0.1354  -21.8122    0.0000 N   0  0  0  0  0  0  0  0  0  0  0  0
    1.2929  -21.8061    0.0000 C   0  0  0  0  0  0  0  0  0  0  0  0
    2.0089  -22.2159    0.0000 N   0  0  0  0  0  0  0  0  0  0  0  0
    1.2898  -20.9811    0.0000 O   0  0  0  0  0  0  0  0  0  0  0  0
   -1.5597  -21.8128    0.0000 C   0  0  0  0  0  0  0  0  0  0  0  0
   -1.5586  -20.9867    0.0000 C   0  0  0  0  0  0  0  0  0  0  0  0
   -2.2723  -20.5744    0.0000 C   0  0  0  0  0  0  0  0  0  0  0  0
   -2.9877  -20.9872    0.0000 C   0  0  0  0  0  0  0  0  0  0  0  0
   -2.9848  -21.8164    0.0000 C   0  0  0  0  0  0  0  0  0  0  0  0
   -2.2705  -22.2249    0.0000 C   0  0  0  0  0  0  0  0  0  0  0  0
   -3.7028  -20.5758    0.0000 O   0  0  0  0  0  0  0  0  0  0  0  0
   -4.4166  -20.9894    0.0000 C   0  0  0  0  0  0  0  0  0  0  0  0
    4.8645  -22.2096    0.0000 C   0  0  0  0  0  0  0  0  0  0  0  0
   -4.4153  -21.8144    0.0000 F   0  0  0  0  0  0  0  0  0  0  0  0
   -5.1317  -20.5780    0.0000 F   0  0  0  0  0  0  0  0  0  0  0  0
   -5.1333  -21.3958    0.0000 F   0  0  0  0  0  0  0  0  0  0  0  0
  1  2  2  0
 13 14  1  0
  3  4  2  0
 13 15  2  0
  7  8  2  0
 16 17  2  0
  8  9  1  0
 17 18  1  0
  4  5  1  0
 18 19  2  0
  9 10  2  0
 19 20  1  0
  2  3  1  0
 20 21  2  0
 21 16  1  0
  7 16  1  0
 10 11  1  0
 19 22  1  0
  5  6  2  0
 22 23  1  0
 14  1  1  0
 11 12  2  0
  3 24  1  0
 12  7  1  0
 23 25  1  0
  6  1  1  0
 23 26  1  0
 11 13  1  0
 23 27  1  0
M  END
> <chembl_id>
CHEMBL1278223

> <chembl_pref_name>
None

$$$$

     RDKit          2D

 29 32  0  0  0  0  0  0  0  0999 V2000
    4.8441  -23.7609    0.0000 C   0  0  0  0  0  0  0  0  0  0  0  0
    4.8429  -24.5882    0.0000 C   0  0  0  0  0  0  0  0  0  0  0  0
    5.5577  -25.0011    0.0000 C   0  0  0  0  0  0  0  0  0  0  0  0
    6.2741  -24.5878    0.0000 C   0  0  0  0  0  0  0  0  0  0  0  0
    6.2712  -23.7572    0.0000 C   0  0  0  0  0  0  0  0  0  0  0  0
    5.5559  -23.3482    0.0000 C   0  0  0  0  0  0  0  0  0  0  0  0
    6.9856  -24.9984    0.0000 C   0  0  0  0  0  0  0  0  0  0  0  0
    6.9855  -25.8244    0.0000 C   0  0  0  0  0  0  0  0  0  0  0  0
    7.6998  -26.2357    0.0000 N   0  0  0  0  0  0  0  0  0  0  0  0
    8.4145  -25.8220    0.0000 C   0  0  0  0  0  0  0  0  0  0  0  0
    8.4105  -24.9928    0.0000 C   0  0  0  0  0  0  0  0  0  0  0  0
    7.6958  -24.5853    0.0000 C   0  0  0  0  0  0  0  0  0  0  0  0
    4.1295  -23.3486    0.0000 Cl  0  0  0  0  0  0  0  0  0  0  0  0
    9.1229  -24.5767    0.0000 C   0  0  0  0  0  0  0  0  0  0  0  0
    9.8395  -24.9856    0.0000 N   0  0  0  0  0  0  0  0  0  0  0  0
    9.1187  -23.7517    0.0000 O   0  0  0  0  0  0  0  0  0  0  0  0
   10.5517  -24.5694    0.0000 C   0  0  0  0  0  0  0  0  0  0  0  0
   11.2683  -24.9783    0.0000 C   0  0  0  0  0  0  0  0  0  0  0  0
   11.2674  -25.8036    0.0000 C   0  0  0  0  0  0  0  0  0  0  0  0
   11.9830  -26.2123    0.0000 C   0  0  0  0  0  0  0  0  0  0  0  0
   12.6964  -25.7961    0.0000 C   0  0  0  0  0  0  0  0  0  0  0  0
   12.6895  -24.9670    0.0000 C   0  0  0  0  0  0  0  0  0  0  0  0
   11.9732  -24.5620    0.0000 C   0  0  0  0  0  0  0  0  0  0  0  0
   11.9665  -23.7411    0.0000 N   0  0  0  0  0  0  0  0  0  0  0  0
   12.6789  -23.3233    0.0000 C   0  0  0  0  0  0  0  0  0  0  0  0
   12.6732  -22.5019    0.0000 C   0  0  0  0  0  0  0  0  0  0  0  0
   11.9566  -22.0922    0.0000 O   0  0  0  0  0  0  0  0  0  0  0  0
   11.2443  -22.5102    0.0000 C   0  0  0  0  0  0  0  0  0  0  0  0
   11.2485  -23.3378    0.0000 C   0  0  0  0  0  0  0  0  0  0  0  0
 11 14  1  0
  3  4  2  0
 14 15  1  0
  7  8  2  0
 14 16  2  0
 15 17  1  0
  8  9  1  0
 17 18  1  0
  4  5  1  0
 18 19  2  0
  9 10  2  0
 19 20  1  0
  2  3  1  0
 20 21  2  0
 10 11  1  0
 21 22  1  0
  5  6  2  0
 22 23  2  0
 23 18  1  0
 24 25  1  0
 11 12  2  0
 12  7  1  0
  4  7  1  0
  6  1  1  0
  1 13  1  0
  1  2  2  0
 24 29  1  0
 25 26  1  0
 26 27  1  0
 27 28  1  0
 28 29  1  0
 23 24  1  0
M  END
> <chembl_id>
CHEMBL1269991

> <chembl_pref_name>
None

$$$$

     RDKit          2D

 28 31  0  0  0  0  0  0  0  0999 V2000
   10.2343  -10.6633    0.0000 C   0  0  0  0  0  0  0  0  0  0  0  0
   10.9487  -11.0765    0.0000 C   0  0  0  0  0  0  0  0  0  0  0  0
   11.6612  -10.6620    0.0000 C   0  0  0  0  0  0  0  0  0  0  0  0
   11.6585   -9.8361    0.0000 N   0  0  0  0  0  0  0  0  0  0  0  0
   10.9375   -9.4265    0.0000 C   0  0  0  0  0  0  0  0  0  0  0  0
   10.2280   -9.8433    0.0000 C   0  0  0  0  0  0  0  0  0  0  0  0
    5.9402   -9.8583    0.0000 C   0  0  0  0  0  0  0  0  0  0  0  0
    5.9391  -10.6857    0.0000 C   0  0  0  0  0  0  0  0  0  0  0  0
    6.6539  -11.0985    0.0000 N   0  0  0  0  0  0  0  0  0  0  0  0
    7.3703  -10.6852    0.0000 C   0  0  0  0  0  0  0  0  0  0  0  0
    7.3675   -9.8547    0.0000 C   0  0  0  0  0  0  0  0  0  0  0  0
    6.6521   -9.4455    0.0000 N   0  0  0  0  0  0  0  0  0  0  0  0
    8.0804   -9.4395    0.0000 C   0  0  0  0  0  0  0  0  0  0  0  0
    8.7964   -9.8493    0.0000 N   0  0  0  0  0  0  0  0  0  0  0  0
    8.0773   -8.6145    0.0000 O   0  0  0  0  0  0  0  0  0  0  0  0
    5.2278   -9.4461    0.0000 C   0  0  0  0  0  0  0  0  0  0  0  0
    5.2289   -8.6200    0.0000 C   0  0  0  0  0  0  0  0  0  0  0  0
    4.5152   -8.2078    0.0000 C   0  0  0  0  0  0  0  0  0  0  0  0
    3.7998   -8.6205    0.0000 C   0  0  0  0  0  0  0  0  0  0  0  0
    3.8027   -9.4498    0.0000 C   0  0  0  0  0  0  0  0  0  0  0  0
    4.5170   -9.8583    0.0000 C   0  0  0  0  0  0  0  0  0  0  0  0
    3.0847   -8.2091    0.0000 Cl  0  0  0  0  0  0  0  0  0  0  0  0
    9.5093   -9.4341    0.0000 C   0  0  0  0  0  0  0  0  0  0  0  0
   10.9284   -8.6017    0.0000 N   0  0  0  0  0  0  0  0  0  0  0  0
   11.5923   -8.1119    0.0000 C   0  0  0  0  0  0  0  0  0  0  0  0
   11.3316   -7.3292    0.0000 C   0  0  0  0  0  0  0  0  0  0  0  0
   10.5066   -7.3352    0.0000 C   0  0  0  0  0  0  0  0  0  0  0  0
   10.2575   -8.1217    0.0000 C   0  0  0  0  0  0  0  0  0  0  0  0
 13 14  1  0
  3  4  2  0
 13 15  2  0
  7  8  2  0
 16 17  2  0
  8  9  1  0
 17 18  1  0
  4  5  1  0
 18 19  2  0
  9 10  2  0
 19 20  1  0
  2  3  1  0
 20 21  2  0
 21 16  1  0
  7 16  1  0
 10 11  1  0
 19 22  1  0
  5  6  2  0
 14 23  1  0
 23  6  1  0
 24 25  1  0
 11 12  2  0
 12  7  1  0
  6  1  1  0
 11 13  1  0
  1  2  2  0
 25 26  1  0
 26 27  1  0
 27 28  1  0
 28 24  1  0
  5 24  1  0
M  END
> <chembl_id>
CHEMBL1277876

> <chembl_pref_name>
None

$$$$

     RDKit          2D

 23 24  0  0  0  0  0  0  0  0999 V2000
    4.4516   -9.4373    0.0000 C   0  0  0  0  0  0  0  0  0  0  0  0
    5.2789   -9.4316    0.0000 C   0  0  0  0  0  0  0  0  0  0  0  0
    5.6859   -8.7134    0.0000 C   0  0  0  0  0  0  0  0  0  0  0  0
    5.2666   -8.0004    0.0000 C   0  0  0  0  0  0  0  0  0  0  0  0
    4.4361   -8.0101    0.0000 C   0  0  0  0  0  0  0  0  0  0  0  0
    4.0329   -8.7289    0.0000 C   0  0  0  0  0  0  0  0  0  0  0  0
    3.2080   -8.7382    0.0000 Cl  0  0  0  0  0  0  0  0  0  0  0  0
    6.5108   -8.7067    0.0000 C   0  0  0  0  0  0  0  0  0  0  0  0
    7.0038   -9.3689    0.0000 C   0  0  0  0  0  0  0  0  0  0  0  0
    7.7863   -9.1076    0.0000 C   0  0  0  0  0  0  0  0  0  0  0  0
    7.7797   -8.2826    0.0000 C   0  0  0  0  0  0  0  0  0  0  0  0
    6.9930   -8.0341    0.0000 O   0  0  0  0  0  0  0  0  0  0  0  0
    8.4888   -7.8690    0.0000 C   0  0  0  0  0  0  0  0  0  0  0  0
    9.2051   -8.2783    0.0000 N   0  0  0  0  0  0  0  0  0  0  0  0
    8.4851   -7.0440    0.0000 O   0  0  0  0  0  0  0  0  0  0  0  0
    9.2087   -9.1033    0.0000 C   0  0  0  0  0  0  0  0  0  0  0  0
    9.9250   -9.5126    0.0000 C   0  0  0  0  0  0  0  0  0  0  0  0
   10.6375   -9.9250    0.0000 C   0  0  0  0  0  0  0  0  0  0  0  0
   10.3364   -8.7974    0.0000 C   0  0  0  0  0  0  0  0  0  0  0  0
    9.5153  -10.2286    0.0000 C   0  0  0  0  0  0  0  0  0  0  0  0
   10.6366  -10.7500    0.0000 N   0  0  0  0  0  0  0  0  0  0  0  0
   11.3506  -11.1633    0.0000 C   0  0  0  0  0  0  0  0  0  0  0  0
    9.9216  -11.1617    0.0000 C   0  0  0  0  0  0  0  0  0  0  0  0
 10 11  2  0
 11 12  1  0
 12  8  1  0
  6  1  1  0
 11 13  1  0
  1  2  2  0
 13 14  1  0
  6  7  1  0
 13 15  2  0
  3  4  2  0
 14 16  1  0
  3  8  1  0
 16 17  1  0
  8  9  2  0
 17 18  1  0
 17 19  1  0
  4  5  1  0
 17 20  1  0
  2  3  1  0
 18 21  1  0
  5  6  2  0
 21 22  1  0
  9 10  1  0
 21 23  1  0
M  END
> <chembl_id>
CHEMBL450458

> <chembl_pref_name>
None

$$$$

     RDKit          2D

 30 33  0  0  0  0  0  0  0  0999 V2000
    4.7345   -3.5245    0.0000 C   0  0  0  0  0  0  0  0  0  0  0  0
    5.5618   -3.5188    0.0000 C   0  0  0  0  0  0  0  0  0  0  0  0
    5.9687   -2.8007    0.0000 C   0  0  0  0  0  0  0  0  0  0  0  0
    5.5494   -2.0877    0.0000 C   0  0  0  0  0  0  0  0  0  0  0  0
    4.7190   -2.0974    0.0000 C   0  0  0  0  0  0  0  0  0  0  0  0
    4.3159   -2.8162    0.0000 C   0  0  0  0  0  0  0  0  0  0  0  0
    3.4910   -2.8255    0.0000 Cl  0  0  0  0  0  0  0  0  0  0  0  0
    6.7936   -2.7940    0.0000 C   0  0  0  0  0  0  0  0  0  0  0  0
    7.2865   -3.4561    0.0000 C   0  0  0  0  0  0  0  0  0  0  0  0
    8.0690   -3.1948    0.0000 C   0  0  0  0  0  0  0  0  0  0  0  0
    8.0623   -2.3699    0.0000 C   0  0  0  0  0  0  0  0  0  0  0  0
    7.2758   -2.1214    0.0000 O   0  0  0  0  0  0  0  0  0  0  0  0
    8.7714   -1.9563    0.0000 C   0  0  0  0  0  0  0  0  0  0  0  0
    9.4876   -2.3656    0.0000 N   0  0  0  0  0  0  0  0  0  0  0  0
    8.7677   -1.1314    0.0000 O   0  0  0  0  0  0  0  0  0  0  0  0
    9.4883   -3.1924    0.0000 C   0  0  0  0  0  0  0  0  0  0  0  0
   10.2004   -3.6016    0.0000 C   0  0  0  0  0  0  0  0  0  0  0  0
   10.9155   -3.1895    0.0000 N   0  0  0  0  0  0  0  0  0  0  0  0
   10.9138   -2.3636    0.0000 C   0  0  0  0  0  0  0  0  0  0  0  0
   10.1970   -1.9498    0.0000 C   0  0  0  0  0  0  0  0  0  0  0  0
   11.6301   -3.6015    0.0000 C   0  0  0  0  0  0  0  0  0  0  0  0
   11.6266   -4.4300    0.0000 C   0  0  0  0  0  0  0  0  0  0  0  0
   12.3372   -4.8419    0.0000 C   0  0  0  0  0  0  0  0  0  0  0  0
   13.0537   -4.4324    0.0000 C   0  0  0  0  0  0  0  0  0  0  0  0
   13.0551   -3.6065    0.0000 C   0  0  0  0  0  0  0  0  0  0  0  0
   12.3400   -3.1901    0.0000 C   0  0  0  0  0  0  0  0  0  0  0  0
   12.3346   -5.6668    0.0000 C   0  0  0  0  0  0  0  0  0  0  0  0
   12.3282   -6.4911    0.0000 F   0  0  0  0  0  0  0  0  0  0  0  0
   13.1595   -5.6713    0.0000 F   0  0  0  0  0  0  0  0  0  0  0  0
   11.5097   -5.6628    0.0000 F   0  0  0  0  0  0  0  0  0  0  0  0
  6  7  1  0
 13 15  2  0
 14 16  1  0
  3  4  2  0
  3  8  1  0
  8  9  2  0
  4  5  1  0
 14 20  1  0
 16 17  1  0
 17 18  1  0
 18 19  1  0
 19 20  1  0
  2  3  1  0
 18 21  1  0
 21 22  1  0
  5  6  2  0
  9 10  1  0
 10 11  2  0
 11 12  1  0
 12  8  1  0
 21 26  2  0
 22 23  2  0
 23 24  1  0
 24 25  2  0
 25 26  1  0
  6  1  1  0
 23 27  1  0
 11 13  1  0
 27 28  1  0
  1  2  2  0
 27 29  1  0
 13 14  1  0
 27 30  1  0
M  END
> <chembl_id>
CHEMBL487307

> <chembl_pref_name>
None

$$$$

     RDKit          2D

 29 32  0  0  0  0  0  0  0  0999 V2000
   10.7374   -6.2043    0.0000 C   0  0  0  0  0  0  0  0  0  0  0  0
   11.4518   -6.6175    0.0000 C   0  0  0  0  0  0  0  0  0  0  0  0
   12.1641   -6.2031    0.0000 C   0  0  0  0  0  0  0  0  0  0  0  0
   12.1615   -5.3773    0.0000 N   0  0  0  0  0  0  0  0  0  0  0  0
   11.4405   -4.9677    0.0000 C   0  0  0  0  0  0  0  0  0  0  0  0
   10.7311   -5.3845    0.0000 C   0  0  0  0  0  0  0  0  0  0  0  0
    6.4438   -5.3995    0.0000 C   0  0  0  0  0  0  0  0  0  0  0  0
    6.4426   -6.2267    0.0000 C   0  0  0  0  0  0  0  0  0  0  0  0
    7.1574   -6.6395    0.0000 N   0  0  0  0  0  0  0  0  0  0  0  0
    7.8737   -6.2263    0.0000 C   0  0  0  0  0  0  0  0  0  0  0  0
    7.8708   -5.3958    0.0000 C   0  0  0  0  0  0  0  0  0  0  0  0
    7.1556   -4.9867    0.0000 N   0  0  0  0  0  0  0  0  0  0  0  0
    8.5837   -4.9806    0.0000 C   0  0  0  0  0  0  0  0  0  0  0  0
    9.2997   -5.3904    0.0000 N   0  0  0  0  0  0  0  0  0  0  0  0
    8.5805   -4.1557    0.0000 O   0  0  0  0  0  0  0  0  0  0  0  0
    5.7313   -4.9873    0.0000 C   0  0  0  0  0  0  0  0  0  0  0  0
    5.7325   -4.1613    0.0000 C   0  0  0  0  0  0  0  0  0  0  0  0
    5.0188   -3.7490    0.0000 C   0  0  0  0  0  0  0  0  0  0  0  0
    4.3036   -4.1618    0.0000 C   0  0  0  0  0  0  0  0  0  0  0  0
    4.3064   -4.9909    0.0000 C   0  0  0  0  0  0  0  0  0  0  0  0
    5.0207   -5.3994    0.0000 C   0  0  0  0  0  0  0  0  0  0  0  0
    3.5885   -3.7504    0.0000 Cl  0  0  0  0  0  0  0  0  0  0  0  0
   10.0125   -4.9753    0.0000 C   0  0  0  0  0  0  0  0  0  0  0  0
   11.4343   -4.1458    0.0000 N   0  0  0  0  0  0  0  0  0  0  0  0
   12.1475   -3.7293    0.0000 C   0  0  0  0  0  0  0  0  0  0  0  0
   12.1435   -2.9080    0.0000 C   0  0  0  0  0  0  0  0  0  0  0  0
   11.4279   -2.4970    0.0000 O   0  0  0  0  0  0  0  0  0  0  0  0
   10.7147   -2.9133    0.0000 C   0  0  0  0  0  0  0  0  0  0  0  0
   10.7170   -3.7409    0.0000 C   0  0  0  0  0  0  0  0  0  0  0  0
  3  4  2  0
 13 15  2  0
  7  8  2  0
 16 17  2  0
  8  9  1  0
 17 18  1  0
  4  5  1  0
 18 19  2  0
  9 10  2  0
 19 20  1  0
  2  3  1  0
 20 21  2  0
 21 16  1  0
  7 16  1  0
 10 11  1  0
 19 22  1  0
  5  6  2  0
 14 23  1  0
 23  6  1  0
 24 25  1  0
 11 12  2  0
 12  7  1  0
  6  1  1  0
 11 13  1  0
  1  2  2  0
 13 14  1  0
 24 29  1  0
 25 26  1  0
 26 27  1  0
 27 28  1  0
 28 29  1  0
  5 24  1  0
M  END
> <chembl_id>
CHEMBL1277700

> <chembl_pref_name>
None

$$$$

     RDKit          2D

 29 32  0  0  0  0  0  0  0  0999 V2000
   -4.6764  -23.8291    0.0000 C   0  0  0  0  0  0  0  0  0  0  0  0
   -4.6776  -24.6565    0.0000 C   0  0  0  0  0  0  0  0  0  0  0  0
   -3.9628  -25.0694    0.0000 C   0  0  0  0  0  0  0  0  0  0  0  0
   -3.2463  -24.6560    0.0000 C   0  0  0  0  0  0  0  0  0  0  0  0
   -3.2492  -23.8255    0.0000 C   0  0  0  0  0  0  0  0  0  0  0  0
   -3.9646  -23.4164    0.0000 C   0  0  0  0  0  0  0  0  0  0  0  0
   -2.5348  -25.0666    0.0000 C   0  0  0  0  0  0  0  0  0  0  0  0
   -2.5348  -25.8928    0.0000 C   0  0  0  0  0  0  0  0  0  0  0  0
   -1.8205  -26.3041    0.0000 N   0  0  0  0  0  0  0  0  0  0  0  0
   -1.1057  -25.8904    0.0000 C   0  0  0  0  0  0  0  0  0  0  0  0
   -1.1097  -25.0611    0.0000 C   0  0  0  0  0  0  0  0  0  0  0  0
   -1.8245  -24.6535    0.0000 C   0  0  0  0  0  0  0  0  0  0  0  0
   -5.3910  -23.4168    0.0000 Cl  0  0  0  0  0  0  0  0  0  0  0  0
   -0.3973  -24.6450    0.0000 C   0  0  0  0  0  0  0  0  0  0  0  0
    0.3192  -25.0538    0.0000 N   0  0  0  0  0  0  0  0  0  0  0  0
   -0.4015  -23.8200    0.0000 O   0  0  0  0  0  0  0  0  0  0  0  0
    1.0316  -24.6377    0.0000 C   0  0  0  0  0  0  0  0  0  0  0  0
    1.7482  -25.0465    0.0000 C   0  0  0  0  0  0  0  0  0  0  0  0
    1.7473  -25.8719    0.0000 C   0  0  0  0  0  0  0  0  0  0  0  0
    2.4630  -26.2807    0.0000 C   0  0  0  0  0  0  0  0  0  0  0  0
    3.1763  -25.8645    0.0000 C   0  0  0  0  0  0  0  0  0  0  0  0
    3.1695  -25.0353    0.0000 C   0  0  0  0  0  0  0  0  0  0  0  0
    2.4532  -24.6302    0.0000 C   0  0  0  0  0  0  0  0  0  0  0  0
    2.4465  -23.8094    0.0000 N   0  0  0  0  0  0  0  0  0  0  0  0
    3.1589  -23.3914    0.0000 C   0  0  0  0  0  0  0  0  0  0  0  0
    3.1531  -22.5701    0.0000 C   0  0  0  0  0  0  0  0  0  0  0  0
    2.4366  -22.1604    0.0000 C   0  0  0  0  0  0  0  0  0  0  0  0
    1.7242  -22.5784    0.0000 C   0  0  0  0  0  0  0  0  0  0  0  0
    1.7283  -23.4060    0.0000 C   0  0  0  0  0  0  0  0  0  0  0  0
 11 14  1  0
  3  4  2  0
 14 15  1  0
  7  8  2  0
 14 16  2  0
 15 17  1  0
  8  9  1  0
 17 18  1  0
  4  5  1  0
 18 19  2  0
  9 10  2  0
 19 20  1  0
  2  3  1  0
 20 21  2  0
 10 11  1  0
 21 22  1  0
  5  6  2  0
 22 23  2  0
 23 18  1  0
 24 25  1  0
 11 12  2  0
 12  7  1  0
  4  7  1  0
  6  1  1  0
  1 13  1  0
  1  2  2  0
 24 29  1  0
 25 26  1  0
 26 27  1  0
 27 28  1  0
 28 29  1  0
 23 24  1  0
M  END
> <chembl_id>
CHEMBL1269990

> <chembl_pref_name>
None

$$$$

     RDKit          2D

 23 25  0  0  0  0  0  0  0  0999 V2000
   -1.9730   -4.9760    0.0000 C   0  0  0  0  0  0  0  0  0  0  0  0
   -1.2239   -5.3218    0.0000 O   0  0  0  0  0  0  0  0  0  0  0  0
   -0.6621   -4.7175    0.0000 C   0  0  0  0  0  0  0  0  0  0  0  0
   -1.0657   -3.9951    0.0000 C   0  0  0  0  0  0  0  0  0  0  0  0
   -1.8735   -4.1582    0.0000 C   0  0  0  0  0  0  0  0  0  0  0  0
   -2.6927   -5.3781    0.0000 C   0  0  0  0  0  0  0  0  0  0  0  0
   -3.4012   -4.9532    0.0000 C   0  0  0  0  0  0  0  0  0  0  0  0
   -4.1213   -5.3543    0.0000 C   0  0  0  0  0  0  0  0  0  0  0  0
   -4.1341   -6.1801    0.0000 C   0  0  0  0  0  0  0  0  0  0  0  0
   -3.4208   -6.6031    0.0000 C   0  0  0  0  0  0  0  0  0  0  0  0
   -2.7037   -6.1996    0.0000 C   0  0  0  0  0  0  0  0  0  0  0  0
    0.1570   -4.8161    0.0000 C   0  0  0  0  0  0  0  0  0  0  0  0
    0.4812   -5.5747    0.0000 O   0  0  0  0  0  0  0  0  0  0  0  0
    0.6519   -4.1560    0.0000 N   0  0  0  0  0  0  0  0  0  0  0  0
    1.4710   -4.2546    0.0000 C   0  0  0  0  0  0  0  0  0  0  0  0
    1.7906   -5.0120    0.0000 C   0  0  0  0  0  0  0  0  0  0  0  0
    2.6089   -5.1108    0.0000 C   0  0  0  0  0  0  0  0  0  0  0  0
    3.1047   -4.4503    0.0000 C   0  0  0  0  0  0  0  0  0  0  0  0
    2.7764   -3.6888    0.0000 C   0  0  0  0  0  0  0  0  0  0  0  0
    1.9591   -3.5936    0.0000 C   0  0  0  0  0  0  0  0  0  0  0  0
    2.9327   -5.8696    0.0000 C   0  0  0  0  0  0  0  0  0  0  0  0
   -4.8561   -6.5885    0.0000 C   0  0  0  0  0  0  0  0  0  0  0  0
   -5.5761   -6.9912    0.0000 N   0  0  0  0  0  0  0  0  0  0  0  0
  1  6  1  0
  1  2  1  0
  3 12  1  0
 12 13  2  0
  6  7  2  0
 12 14  1  0
  2  3  1  0
 14 15  1  0
  7  8  1  0
 15 16  2  0
  3  4  2  0
 16 17  1  0
  8  9  2  0
 17 18  2  0
  4  5  1  0
 18 19  1  0
  9 10  1  0
 19 20  2  0
 20 15  1  0
  5  1  2  0
 17 21  1  0
 10 11  2  0
 11  6  1  0
 22 23  3  0
  9 22  1  0
M  END
> <chembl_id>
CHEMBL401258

> <chembl_pref_name>
None

$$$$

     RDKit          2D

 29 32  0  0  0  0  0  0  0  0999 V2000
   14.6569   -2.8916    0.0000 C   0  0  0  0  0  0  0  0  0  0  0  0
   14.6557   -3.7190    0.0000 C   0  0  0  0  0  0  0  0  0  0  0  0
   15.3706   -4.1319    0.0000 C   0  0  0  0  0  0  0  0  0  0  0  0
   16.0870   -3.7185    0.0000 C   0  0  0  0  0  0  0  0  0  0  0  0
   16.0841   -2.8880    0.0000 C   0  0  0  0  0  0  0  0  0  0  0  0
   15.3688   -2.4789    0.0000 C   0  0  0  0  0  0  0  0  0  0  0  0
   16.7986   -4.1291    0.0000 C   0  0  0  0  0  0  0  0  0  0  0  0
   16.7985   -4.9553    0.0000 C   0  0  0  0  0  0  0  0  0  0  0  0
   17.5128   -5.3666    0.0000 N   0  0  0  0  0  0  0  0  0  0  0  0
   18.2276   -4.9529    0.0000 C   0  0  0  0  0  0  0  0  0  0  0  0
   18.2236   -4.1236    0.0000 C   0  0  0  0  0  0  0  0  0  0  0  0
   17.5088   -3.7160    0.0000 C   0  0  0  0  0  0  0  0  0  0  0  0
   13.9423   -2.4793    0.0000 Cl  0  0  0  0  0  0  0  0  0  0  0  0
   18.9360   -3.7075    0.0000 C   0  0  0  0  0  0  0  0  0  0  0  0
   19.6526   -4.1163    0.0000 N   0  0  0  0  0  0  0  0  0  0  0  0
   18.9318   -2.8825    0.0000 O   0  0  0  0  0  0  0  0  0  0  0  0
   20.3649   -3.7002    0.0000 C   0  0  0  0  0  0  0  0  0  0  0  0
   21.0815   -4.1090    0.0000 C   0  0  0  0  0  0  0  0  0  0  0  0
   21.0806   -4.9344    0.0000 C   0  0  0  0  0  0  0  0  0  0  0  0
   21.7963   -5.3432    0.0000 C   0  0  0  0  0  0  0  0  0  0  0  0
   22.5097   -4.9270    0.0000 C   0  0  0  0  0  0  0  0  0  0  0  0
   22.5028   -4.0978    0.0000 N   0  0  0  0  0  0  0  0  0  0  0  0
   21.7865   -3.6927    0.0000 C   0  0  0  0  0  0  0  0  0  0  0  0
   21.7798   -2.8719    0.0000 N   0  0  0  0  0  0  0  0  0  0  0  0
   22.4922   -2.4539    0.0000 C   0  0  0  0  0  0  0  0  0  0  0  0
   22.4865   -1.6326    0.0000 C   0  0  0  0  0  0  0  0  0  0  0  0
   21.7699   -1.2229    0.0000 O   0  0  0  0  0  0  0  0  0  0  0  0
   21.0575   -1.6409    0.0000 C   0  0  0  0  0  0  0  0  0  0  0  0
   21.0617   -2.4685    0.0000 C   0  0  0  0  0  0  0  0  0  0  0  0
 11 14  1  0
  3  4  2  0
 14 15  1  0
  7  8  2  0
 14 16  2  0
 15 17  1  0
  8  9  1  0
 17 18  1  0
  4  5  1  0
 18 19  2  0
  9 10  2  0
 19 20  1  0
  2  3  1  0
 20 21  2  0
 10 11  1  0
 21 22  1  0
  5  6  2  0
 22 23  2  0
 23 18  1  0
 24 25  1  0
 11 12  2  0
 12  7  1  0
  4  7  1  0
  6  1  1  0
  1 13  1  0
  1  2  2  0
 24 29  1  0
 25 26  1  0
 26 27  1  0
 27 28  1  0
 28 29  1  0
 23 24  1  0
M  END
> <chembl_id>
CHEMBL1270302

> <chembl_pref_name>
None

$$$$

     RDKit          2D

 22 24  0  0  0  0  0  0  0  0999 V2000
   -0.9554   -6.5216    0.0000 C   0  0  0  0  0  0  0  0  0  0  0  0
   -0.2004   -6.1877    0.0000 O   0  0  0  0  0  0  0  0  0  0  0  0
    0.3521   -6.8015    0.0000 C   0  0  0  0  0  0  0  0  0  0  0  0
   -0.0635   -7.5179    0.0000 C   0  0  0  0  0  0  0  0  0  0  0  0
   -0.8693   -7.3415    0.0000 C   0  0  0  0  0  0  0  0  0  0  0  0
   -1.6691   -6.1075    0.0000 C   0  0  0  0  0  0  0  0  0  0  0  0
   -2.3849   -6.5211    0.0000 C   0  0  0  0  0  0  0  0  0  0  0  0
   -3.0990   -6.1081    0.0000 C   0  0  0  0  0  0  0  0  0  0  0  0
   -3.0984   -5.2816    0.0000 C   0  0  0  0  0  0  0  0  0  0  0  0
   -2.3778   -4.8699    0.0000 C   0  0  0  0  0  0  0  0  0  0  0  0
   -1.6668   -5.2853    0.0000 C   0  0  0  0  0  0  0  0  0  0  0  0
    1.1733   -6.7162    0.0000 C   0  0  0  0  0  0  0  0  0  0  0  0
    1.5100   -5.9623    0.0000 O   0  0  0  0  0  0  0  0  0  0  0  0
    1.6578   -7.3847    0.0000 N   0  0  0  0  0  0  0  0  0  0  0  0
    2.4790   -7.2993    0.0000 C   0  0  0  0  0  0  0  0  0  0  0  0
    2.8112   -6.5467    0.0000 C   0  0  0  0  0  0  0  0  0  0  0  0
    3.6316   -6.4611    0.0000 C   0  0  0  0  0  0  0  0  0  0  0  0
    2.9567   -7.9688    0.0000 C   0  0  0  0  0  0  0  0  0  0  0  0
   -3.8123   -4.8670    0.0000 Cl  0  0  0  0  0  0  0  0  0  0  0  0
    4.1171   -7.1286    0.0000 N   0  0  0  0  0  0  0  0  0  0  0  0
    3.7761   -7.8868    0.0000 C   0  0  0  0  0  0  0  0  0  0  0  0
    4.2584   -8.5568    0.0000 C   0  0  0  0  0  0  0  0  0  0  0  0
 11  6  1  0
  1  6  1  0
  1  2  1  0
  3 12  1  0
 12 13  2  0
  6  7  2  0
 12 14  1  0
  2  3  1  0
 14 15  1  0
  7  8  1  0
 15 16  2  0
  3  4  2  0
 16 17  1  0
 17 20  2  0
  8  9  2  0
 21 18  2  0
 18 15  1  0
  4  5  1  0
  9 19  1  0
 20 21  1  0
  9 10  1  0
  5  1  2  0
 10 11  2  0
 21 22  1  0
M  END
> <chembl_id>
CHEMBL251066

> <chembl_pref_name>
None

$$$$

     RDKit          2D

 25 27  0  0  0  0  0  0  0  0999 V2000
    9.9674  -11.5104    0.0000 C   0  0  0  0  0  0  0  0  0  0  0  0
   10.7223  -11.1765    0.0000 O   0  0  0  0  0  0  0  0  0  0  0  0
   11.2746  -11.7901    0.0000 C   0  0  0  0  0  0  0  0  0  0  0  0
   10.8591  -12.5064    0.0000 C   0  0  0  0  0  0  0  0  0  0  0  0
   10.0536  -12.3300    0.0000 C   0  0  0  0  0  0  0  0  0  0  0  0
    9.2538  -11.0963    0.0000 C   0  0  0  0  0  0  0  0  0  0  0  0
    8.5381  -11.5099    0.0000 C   0  0  0  0  0  0  0  0  0  0  0  0
    7.8244  -11.0969    0.0000 C   0  0  0  0  0  0  0  0  0  0  0  0
    7.8250  -10.2706    0.0000 C   0  0  0  0  0  0  0  0  0  0  0  0
    8.5453   -9.8590    0.0000 C   0  0  0  0  0  0  0  0  0  0  0  0
    9.2562  -10.2743    0.0000 C   0  0  0  0  0  0  0  0  0  0  0  0
   12.0956  -11.7049    0.0000 C   0  0  0  0  0  0  0  0  0  0  0  0
   12.4323  -10.9512    0.0000 O   0  0  0  0  0  0  0  0  0  0  0  0
   12.5800  -12.3732    0.0000 N   0  0  0  0  0  0  0  0  0  0  0  0
   13.4011  -12.2879    0.0000 C   0  0  0  0  0  0  0  0  0  0  0  0
   13.7332  -11.5354    0.0000 C   0  0  0  0  0  0  0  0  0  0  0  0
   14.5533  -11.4498    0.0000 C   0  0  0  0  0  0  0  0  0  0  0  0
   15.0386  -12.1187    0.0000 C   0  0  0  0  0  0  0  0  0  0  0  0
   14.6978  -12.8752    0.0000 C   0  0  0  0  0  0  0  0  0  0  0  0
   13.8785  -12.9571    0.0000 C   0  0  0  0  0  0  0  0  0  0  0  0
    7.1112   -9.8561    0.0000 Cl  0  0  0  0  0  0  0  0  0  0  0  0
   14.8896  -10.6960    0.0000 O   0  0  0  0  0  0  0  0  0  0  0  0
   15.7106  -10.6103    0.0000 C   0  0  0  0  0  0  0  0  0  0  0  0
   15.1799  -13.5453    0.0000 O   0  0  0  0  0  0  0  0  0  0  0  0
   16.0012  -13.4628    0.0000 C   0  0  0  0  0  0  0  0  0  0  0  0
  3 12  1  0
 12 13  2  0
  6  7  2  0
 12 14  1  0
  2  3  1  0
 14 15  1  0
  7  8  1  0
 15 16  2  0
  3  4  2  0
 16 17  1  0
  8  9  2  0
 17 18  2  0
  4  5  1  0
 18 19  1  0
  9 10  1  0
 19 20  2  0
 20 15  1  0
  5  1  2  0
  9 21  1  0
 10 11  2  0
 17 22  1  0
 11  6  1  0
 22 23  1  0
  1  6  1  0
 19 24  1  0
  1  2  1  0
 24 25  1  0
M  END
> <chembl_id>
CHEMBL250699

> <chembl_pref_name>
None

$$$$

     RDKit          2D

 24 26  0  0  0  0  0  0  0  0999 V2000
    9.4812    1.3907    0.0000 C   0  0  0  0  0  0  0  0  0  0  0  0
   10.2302    1.0449    0.0000 O   0  0  0  0  0  0  0  0  0  0  0  0
   10.7921    1.6491    0.0000 C   0  0  0  0  0  0  0  0  0  0  0  0
   10.3884    2.3716    0.0000 C   0  0  0  0  0  0  0  0  0  0  0  0
    9.5806    2.2085    0.0000 C   0  0  0  0  0  0  0  0  0  0  0  0
    8.7615    0.9886    0.0000 C   0  0  0  0  0  0  0  0  0  0  0  0
    8.0530    1.4135    0.0000 C   0  0  0  0  0  0  0  0  0  0  0  0
    7.3329    1.0124    0.0000 C   0  0  0  0  0  0  0  0  0  0  0  0
    7.3201    0.1866    0.0000 C   0  0  0  0  0  0  0  0  0  0  0  0
    8.0333   -0.2365    0.0000 C   0  0  0  0  0  0  0  0  0  0  0  0
    8.7505    0.1670    0.0000 C   0  0  0  0  0  0  0  0  0  0  0  0
   11.6112    1.5506    0.0000 C   0  0  0  0  0  0  0  0  0  0  0  0
   11.9353    0.7919    0.0000 O   0  0  0  0  0  0  0  0  0  0  0  0
   12.1061    2.2106    0.0000 N   0  0  0  0  0  0  0  0  0  0  0  0
   12.9252    2.1120    0.0000 C   0  0  0  0  0  0  0  0  0  0  0  0
   13.2448    1.3547    0.0000 C   0  0  0  0  0  0  0  0  0  0  0  0
   14.0631    1.2558    0.0000 C   0  0  0  0  0  0  0  0  0  0  0  0
   14.5589    1.9163    0.0000 C   0  0  0  0  0  0  0  0  0  0  0  0
   14.2306    2.6779    0.0000 C   0  0  0  0  0  0  0  0  0  0  0  0
   13.4133    2.7730    0.0000 C   0  0  0  0  0  0  0  0  0  0  0  0
   14.3911    0.4970    0.0000 C   0  0  0  0  0  0  0  0  0  0  0  0
    6.6001   -0.2161    0.0000 O   0  0  0  0  0  0  0  0  0  0  0  0
    5.8913    0.2061    0.0000 C   0  0  0  0  0  0  0  0  0  0  0  0
    5.1713   -0.1967    0.0000 C   0  0  0  0  0  0  0  0  0  0  0  0
  1  2  1  0
  3 12  1  0
 12 13  2  0
  6  7  2  0
 12 14  1  0
  2  3  1  0
 14 15  1  0
  7  8  1  0
 15 16  2  0
  3  4  2  0
 16 17  1  0
  8  9  2  0
 17 18  2  0
  4  5  1  0
 18 19  1  0
  9 10  1  0
 19 20  2  0
 20 15  1  0
  5  1  2  0
 17 21  1  0
 10 11  2  0
  9 22  1  0
 11  6  1  0
 22 23  1  0
  1  6  1  0
 23 24  1  0
M  END
> <chembl_id>
CHEMBL429830

> <chembl_pref_name>
None

$$$$

     RDKit          2D

 23 25  0  0  0  0  0  0  0  0999 V2000
   -1.3806    0.0544    0.0000 C   0  0  0  0  0  0  0  0  0  0  0  0
   -0.8219    0.6614    0.0000 O   0  0  0  0  0  0  0  0  0  0  0  0
   -0.0710    0.3193    0.0000 C   0  0  0  0  0  0  0  0  0  0  0  0
   -0.1662   -0.5028    0.0000 C   0  0  0  0  0  0  0  0  0  0  0  0
   -0.9747   -0.6624    0.0000 C   0  0  0  0  0  0  0  0  0  0  0  0
   -2.1996    0.1492    0.0000 C   0  0  0  0  0  0  0  0  0  0  0  0
   -2.6905   -0.5153    0.0000 C   0  0  0  0  0  0  0  0  0  0  0  0
   -3.5094   -0.4216    0.0000 C   0  0  0  0  0  0  0  0  0  0  0  0
   -3.8385    0.3360    0.0000 C   0  0  0  0  0  0  0  0  0  0  0  0
   -3.3424    1.0005    0.0000 C   0  0  0  0  0  0  0  0  0  0  0  0
   -2.5253    0.9035    0.0000 C   0  0  0  0  0  0  0  0  0  0  0  0
    0.6473    0.7250    0.0000 C   0  0  0  0  0  0  0  0  0  0  0  0
    0.6552    1.5499    0.0000 O   0  0  0  0  0  0  0  0  0  0  0  0
    1.3578    0.3057    0.0000 N   0  0  0  0  0  0  0  0  0  0  0  0
    2.0762    0.7113    0.0000 C   0  0  0  0  0  0  0  0  0  0  0  0
   -4.6579    0.4312    0.0000 Cl  0  0  0  0  0  0  0  0  0  0  0  0
    2.7867    0.2920    0.0000 C   0  0  0  0  0  0  0  0  0  0  0  0
    2.7767   -0.5331    0.0000 C   0  0  0  0  0  0  0  0  0  0  0  0
    3.4863   -0.9523    0.0000 C   0  0  0  0  0  0  0  0  0  0  0  0
    4.2057   -0.5466    0.0000 C   0  0  0  0  0  0  0  0  0  0  0  0
    4.2110    0.2826    0.0000 C   0  0  0  0  0  0  0  0  0  0  0  0
    3.5007    0.6981    0.0000 C   0  0  0  0  0  0  0  0  0  0  0  0
    3.5057    1.5231    0.0000 C   0  0  0  0  0  0  0  0  0  0  0  0
  1  6  1  0
  1  2  1  0
  3 12  1  0
 12 13  2  0
  6  7  2  0
 12 14  1  0
  2  3  1  0
 14 15  1  0
  7  8  1  0
  9 16  1  0
  3  4  2  0
 15 17  1  0
  8  9  2  0
 17 18  2  0
  4  5  1  0
 18 19  1  0
  9 10  1  0
 19 20  2  0
  5  1  2  0
 20 21  1  0
 10 11  2  0
 21 22  2  0
 22 17  1  0
 11  6  1  0
 22 23  1  0
M  END
> <chembl_id>
CHEMBL427714

> <chembl_pref_name>
None

$$$$

     RDKit          2D

 26 29  0  0  0  0  0  0  0  0999 V2000
    5.5454    0.7582    0.0000 C   0  0  0  0  0  0  0  0  0  0  0  0
    6.3725    0.7639    0.0000 C   0  0  0  0  0  0  0  0  0  0  0  0
    6.7792    1.4820    0.0000 C   0  0  0  0  0  0  0  0  0  0  0  0
    6.3601    2.1946    0.0000 C   0  0  0  0  0  0  0  0  0  0  0  0
    5.5299    2.1849    0.0000 C   0  0  0  0  0  0  0  0  0  0  0  0
    5.1269    1.4664    0.0000 C   0  0  0  0  0  0  0  0  0  0  0  0
    4.3022    1.4571    0.0000 Cl  0  0  0  0  0  0  0  0  0  0  0  0
    7.6039    1.4886    0.0000 C   0  0  0  0  0  0  0  0  0  0  0  0
    8.0966    0.8267    0.0000 C   0  0  0  0  0  0  0  0  0  0  0  0
    8.8789    1.0878    0.0000 C   0  0  0  0  0  0  0  0  0  0  0  0
    8.8722    1.9126    0.0000 C   0  0  0  0  0  0  0  0  0  0  0  0
    8.0859    2.1609    0.0000 O   0  0  0  0  0  0  0  0  0  0  0  0
    9.5811    2.3260    0.0000 C   0  0  0  0  0  0  0  0  0  0  0  0
   10.2971    1.9169    0.0000 N   0  0  0  0  0  0  0  0  0  0  0  0
    9.5774    3.1507    0.0000 O   0  0  0  0  0  0  0  0  0  0  0  0
   10.2978    1.0902    0.0000 C   0  0  0  0  0  0  0  0  0  0  0  0
   11.0098    0.6812    0.0000 C   0  0  0  0  0  0  0  0  0  0  0  0
   11.7246    1.0932    0.0000 N   0  0  0  0  0  0  0  0  0  0  0  0
   11.7229    1.9188    0.0000 C   0  0  0  0  0  0  0  0  0  0  0  0
   11.0064    2.3324    0.0000 C   0  0  0  0  0  0  0  0  0  0  0  0
   12.4390    0.6813    0.0000 C   0  0  0  0  0  0  0  0  0  0  0  0
   12.4355   -0.1469    0.0000 C   0  0  0  0  0  0  0  0  0  0  0  0
   13.1459   -0.5587    0.0000 C   0  0  0  0  0  0  0  0  0  0  0  0
   13.8622   -0.1494    0.0000 C   0  0  0  0  0  0  0  0  0  0  0  0
   13.8636    0.6763    0.0000 C   0  0  0  0  0  0  0  0  0  0  0  0
   13.1487    1.0926    0.0000 C   0  0  0  0  0  0  0  0  0  0  0  0
  6  1  1  0
 11 13  1  0
  1  2  2  0
 13 14  1  0
  6  7  1  0
 13 15  2  0
 14 16  1  0
  3  4  2  0
  3  8  1  0
  8  9  2  0
  4  5  1  0
 14 20  1  0
 16 17  1  0
 17 18  1  0
 18 19  1  0
 19 20  1  0
  2  3  1  0
 18 21  1  0
 21 22  1  0
  5  6  2  0
  9 10  1  0
 10 11  2  0
 11 12  1  0
 12  8  1  0
 21 26  1  0
 22 23  1  0
 23 24  1  0
 24 25  1  0
 25 26  1  0
M  END
> <chembl_id>
CHEMBL482676

> <chembl_pref_name>
None

$$$$

     RDKit          2D

 23 25  0  0  0  0  0  0  0  0999 V2000
   10.3777   -6.1418    0.0000 C   0  0  0  0  0  0  0  0  0  0  0  0
   11.1327   -5.8079    0.0000 O   0  0  0  0  0  0  0  0  0  0  0  0
   11.6851   -6.4217    0.0000 C   0  0  0  0  0  0  0  0  0  0  0  0
   11.2695   -7.1380    0.0000 C   0  0  0  0  0  0  0  0  0  0  0  0
   10.4638   -6.9616    0.0000 C   0  0  0  0  0  0  0  0  0  0  0  0
    9.6641   -5.7278    0.0000 C   0  0  0  0  0  0  0  0  0  0  0  0
    8.9483   -6.1414    0.0000 C   0  0  0  0  0  0  0  0  0  0  0  0
    8.2342   -5.7283    0.0000 C   0  0  0  0  0  0  0  0  0  0  0  0
    8.2348   -4.9019    0.0000 C   0  0  0  0  0  0  0  0  0  0  0  0
    8.9554   -4.4901    0.0000 C   0  0  0  0  0  0  0  0  0  0  0  0
    9.6664   -4.9055    0.0000 C   0  0  0  0  0  0  0  0  0  0  0  0
   12.5063   -6.3363    0.0000 C   0  0  0  0  0  0  0  0  0  0  0  0
   12.8429   -5.5825    0.0000 O   0  0  0  0  0  0  0  0  0  0  0  0
   12.9907   -7.0048    0.0000 N   0  0  0  0  0  0  0  0  0  0  0  0
   13.8119   -6.9195    0.0000 C   0  0  0  0  0  0  0  0  0  0  0  0
   14.1440   -6.1669    0.0000 C   0  0  0  0  0  0  0  0  0  0  0  0
   14.9644   -6.0812    0.0000 C   0  0  0  0  0  0  0  0  0  0  0  0
   14.2895   -7.5888    0.0000 C   0  0  0  0  0  0  0  0  0  0  0  0
    7.5209   -4.4872    0.0000 Cl  0  0  0  0  0  0  0  0  0  0  0  0
   15.4499   -6.7487    0.0000 C   0  0  0  0  0  0  0  0  0  0  0  0
   15.1089   -7.5068    0.0000 C   0  0  0  0  0  0  0  0  0  0  0  0
   15.5912   -8.1769    0.0000 C   0  0  0  0  0  0  0  0  0  0  0  0
   12.6541   -7.7586    0.0000 C   0  0  0  0  0  0  0  0  0  0  0  0
  1  6  1  0
  1  2  1  0
  3 12  1  0
 12 13  2  0
  6  7  2  0
 12 14  1  0
  2  3  1  0
 14 15  1  0
  7  8  1  0
 15 16  2  0
  3  4  2  0
 16 17  1  0
 17 20  2  0
  8  9  2  0
 21 18  2  0
 18 15  1  0
  4  5  1  0
  9 19  1  0
 20 21  1  0
  9 10  1  0
  5  1  2  0
 10 11  2  0
 21 22  1  0
 11  6  1  0
 14 23  1  0
M  END
> <chembl_id>
CHEMBL400958

> <chembl_pref_name>
None

$$$$

     RDKit          2D

 25 27  0  0  0  0  0  0  0  0999 V2000
   -1.6541  -16.3125    0.0000 C   0  0  0  0  0  0  0  0  0  0  0  0
   -0.9038  -16.6569    0.0000 O   0  0  0  0  0  0  0  0  0  0  0  0
   -0.3400  -16.0509    0.0000 C   0  0  0  0  0  0  0  0  0  0  0  0
   -0.7462  -15.3312    0.0000 C   0  0  0  0  0  0  0  0  0  0  0  0
   -1.5549  -15.4937    0.0000 C   0  0  0  0  0  0  0  0  0  0  0  0
   -2.3752  -16.7130    0.0000 C   0  0  0  0  0  0  0  0  0  0  0  0
   -3.0809  -16.2898    0.0000 C   0  0  0  0  0  0  0  0  0  0  0  0
   -3.8023  -16.6893    0.0000 C   0  0  0  0  0  0  0  0  0  0  0  0
   -3.8150  -17.5160    0.0000 C   0  0  0  0  0  0  0  0  0  0  0  0
   -3.1004  -17.9416    0.0000 C   0  0  0  0  0  0  0  0  0  0  0  0
   -2.3860  -17.5355    0.0000 C   0  0  0  0  0  0  0  0  0  0  0  0
    0.4801  -16.1532    0.0000 C   0  0  0  0  0  0  0  0  0  0  0  0
    0.8031  -16.9089    0.0000 O   0  0  0  0  0  0  0  0  0  0  0  0
    0.9731  -15.4916    0.0000 N   0  0  0  0  0  0  0  0  0  0  0  0
    1.7932  -15.5897    0.0000 C   0  0  0  0  0  0  0  0  0  0  0  0
    2.1158  -16.3483    0.0000 C   0  0  0  0  0  0  0  0  0  0  0  0
    2.9350  -16.4468    0.0000 C   0  0  0  0  0  0  0  0  0  0  0  0
    3.4288  -15.7847    0.0000 C   0  0  0  0  0  0  0  0  0  0  0  0
    3.1018  -15.0220    0.0000 C   0  0  0  0  0  0  0  0  0  0  0  0
    2.2835  -14.9272    0.0000 C   0  0  0  0  0  0  0  0  0  0  0  0
    3.2575  -17.2068    0.0000 C   0  0  0  0  0  0  0  0  0  0  0  0
   -3.1098  -18.7675    0.0000 C   0  0  0  0  0  0  0  0  0  0  0  0
   -2.2869  -18.7644    0.0000 F   0  0  0  0  0  0  0  0  0  0  0  0
   -3.9389  -18.7644    0.0000 F   0  0  0  0  0  0  0  0  0  0  0  0
   -3.1131  -19.5934    0.0000 F   0  0  0  0  0  0  0  0  0  0  0  0
  3 12  1  0
 12 13  2  0
  6  7  2  0
 12 14  1  0
  2  3  1  0
 14 15  1  0
  7  8  1  0
 15 16  2  0
  3  4  2  0
 16 17  1  0
  8  9  2  0
 17 18  2  0
  4  5  1  0
 18 19  1  0
  9 10  1  0
 19 20  2  0
 20 15  1  0
  5  1  2  0
 17 21  1  0
 10 11  2  0
 10 22  1  0
 11  6  1  0
 22 23  1  0
  1  6  1  0
 22 24  1  0
  1  2  1  0
 22 25  1  0
M  END
> <chembl_id>
CHEMBL254383

> <chembl_pref_name>
None

$$$$

     RDKit          2D

 25 27  0  0  0  0  0  0  0  0999 V2000
   -1.4407  -10.3197    0.0000 C   0  0  0  0  0  0  0  0  0  0  0  0
   -0.6913  -10.6680    0.0000 O   0  0  0  0  0  0  0  0  0  0  0  0
   -0.1282  -10.0626    0.0000 C   0  0  0  0  0  0  0  0  0  0  0  0
   -0.5339   -9.3396    0.0000 C   0  0  0  0  0  0  0  0  0  0  0  0
   -1.3417   -9.5020    0.0000 C   0  0  0  0  0  0  0  0  0  0  0  0
   -2.1610  -10.7240    0.0000 C   0  0  0  0  0  0  0  0  0  0  0  0
   -2.8700  -10.2970    0.0000 C   0  0  0  0  0  0  0  0  0  0  0  0
   -3.5907  -10.7003    0.0000 C   0  0  0  0  0  0  0  0  0  0  0  0
   -3.6034  -11.5260    0.0000 C   0  0  0  0  0  0  0  0  0  0  0  0
   -2.8896  -11.9470    0.0000 C   0  0  0  0  0  0  0  0  0  0  0  0
   -2.1718  -11.5455    0.0000 C   0  0  0  0  0  0  0  0  0  0  0  0
    0.6910  -10.1606    0.0000 C   0  0  0  0  0  0  0  0  0  0  0  0
    1.0136  -10.9196    0.0000 O   0  0  0  0  0  0  0  0  0  0  0  0
    1.1834   -9.4998    0.0000 N   0  0  0  0  0  0  0  0  0  0  0  0
    2.0026   -9.5979    0.0000 C   0  0  0  0  0  0  0  0  0  0  0  0
    2.3248  -10.3555    0.0000 C   0  0  0  0  0  0  0  0  0  0  0  0
    3.1430  -10.4580    0.0000 C   0  0  0  0  0  0  0  0  0  0  0  0
    3.6364   -9.7968    0.0000 C   0  0  0  0  0  0  0  0  0  0  0  0
    3.3097   -9.0349    0.0000 C   0  0  0  0  0  0  0  0  0  0  0  0
    2.4923   -8.9402    0.0000 C   0  0  0  0  0  0  0  0  0  0  0  0
    3.4652  -11.2130    0.0000 C   0  0  0  0  0  0  0  0  0  0  0  0
   -4.3198  -11.9268    0.0000 S   0  0  0  0  0  0  0  0  0  0  0  0
   -3.9136  -12.6362    0.0000 O   0  0  0  0  0  0  0  0  0  0  0  0
   -4.7386  -11.2060    0.0000 O   0  0  0  0  0  0  0  0  0  0  0  0
   -5.0334  -12.3438    0.0000 C   0  0  0  0  0  0  0  0  0  0  0  0
  3 12  1  0
 12 13  2  0
  6  7  2  0
 12 14  1  0
  2  3  1  0
 14 15  1  0
  7  8  1  0
 15 16  2  0
  3  4  2  0
 16 17  1  0
  8  9  2  0
 17 18  2  0
  4  5  1  0
 18 19  1  0
  9 10  1  0
 19 20  2  0
 20 15  1  0
  5  1  2  0
 17 21  1  0
 10 11  2  0
  9 22  1  0
 11  6  1  0
 22 23  2  0
  1  6  1  0
 22 24  2  0
  1  2  1  0
 22 25  1  0
M  END
> <chembl_id>
CHEMBL250444

> <chembl_pref_name>
None

$$$$

     RDKit          2D

 25 28  0  0  0  0  0  0  0  0999 V2000
   -1.4672  -17.2082    0.0000 C   0  0  0  0  0  0  0  0  0  0  0  0
   -0.7127  -16.8746    0.0000 O   0  0  0  0  0  0  0  0  0  0  0  0
   -0.1607  -17.4879    0.0000 C   0  0  0  0  0  0  0  0  0  0  0  0
   -0.5760  -18.2037    0.0000 C   0  0  0  0  0  0  0  0  0  0  0  0
   -1.3811  -18.0275    0.0000 C   0  0  0  0  0  0  0  0  0  0  0  0
   -2.1803  -16.7945    0.0000 C   0  0  0  0  0  0  0  0  0  0  0  0
   -2.8956  -17.2078    0.0000 C   0  0  0  0  0  0  0  0  0  0  0  0
   -3.6091  -16.7951    0.0000 C   0  0  0  0  0  0  0  0  0  0  0  0
   -3.6085  -15.9692    0.0000 C   0  0  0  0  0  0  0  0  0  0  0  0
   -2.8885  -15.5578    0.0000 C   0  0  0  0  0  0  0  0  0  0  0  0
   -2.1780  -15.9729    0.0000 C   0  0  0  0  0  0  0  0  0  0  0  0
    0.6599  -17.4027    0.0000 C   0  0  0  0  0  0  0  0  0  0  0  0
    0.9963  -16.6494    0.0000 O   0  0  0  0  0  0  0  0  0  0  0  0
    1.1440  -18.0707    0.0000 N   0  0  0  0  0  0  0  0  0  0  0  0
    1.9646  -17.9854    0.0000 C   0  0  0  0  0  0  0  0  0  0  0  0
    2.2965  -17.2333    0.0000 C   0  0  0  0  0  0  0  0  0  0  0  0
    3.1163  -17.1478    0.0000 C   0  0  0  0  0  0  0  0  0  0  0  0
    2.4419  -18.6542    0.0000 C   0  0  0  0  0  0  0  0  0  0  0  0
   -4.3219  -15.5548    0.0000 Cl  0  0  0  0  0  0  0  0  0  0  0  0
    3.6056  -17.8166    0.0000 C   0  0  0  0  0  0  0  0  0  0  0  0
    3.2607  -18.5723    0.0000 C   0  0  0  0  0  0  0  0  0  0  0  0
    3.8728  -19.1340    0.0000 N   0  0  0  0  0  0  0  0  0  0  0  0
    4.5961  -18.7254    0.0000 C   0  0  0  0  0  0  0  0  0  0  0  0
    4.4309  -17.9113    0.0000 C   0  0  0  0  0  0  0  0  0  0  0  0
    3.7788  -19.9536    0.0000 C   0  0  0  0  0  0  0  0  0  0  0  0
  3 12  1  0
 12 13  2  0
  6  7  2  0
 12 14  1  0
  2  3  1  0
 14 15  1  0
  7  8  1  0
 15 16  2  0
  3  4  2  0
 16 17  1  0
 17 20  2  0
  8  9  2  0
 21 18  2  0
 18 15  1  0
  4  5  1  0
  9 19  1  0
 20 21  1  0
  9 10  1  0
  5  1  2  0
 10 11  2  0
 11  6  1  0
  1  6  1  0
 21 22  1  0
 22 23  1  0
 23 24  1  0
 24 20  1  0
  1  2  1  0
 22 25  1  0
M  END
> <chembl_id>
CHEMBL250876

> <chembl_pref_name>
None

$$$$

     RDKit          2D

 26 29  0  0  0  0  0  0  0  0999 V2000
   -1.8132  -23.3316    0.0000 C   0  0  0  0  0  0  0  0  0  0  0  0
   -1.0586  -22.9979    0.0000 O   0  0  0  0  0  0  0  0  0  0  0  0
   -0.5066  -23.6112    0.0000 C   0  0  0  0  0  0  0  0  0  0  0  0
   -0.9220  -24.3272    0.0000 C   0  0  0  0  0  0  0  0  0  0  0  0
   -1.7271  -24.1509    0.0000 C   0  0  0  0  0  0  0  0  0  0  0  0
   -2.5265  -22.9178    0.0000 C   0  0  0  0  0  0  0  0  0  0  0  0
   -3.2418  -23.3311    0.0000 C   0  0  0  0  0  0  0  0  0  0  0  0
   -3.9553  -22.9184    0.0000 C   0  0  0  0  0  0  0  0  0  0  0  0
   -3.9547  -22.0924    0.0000 C   0  0  0  0  0  0  0  0  0  0  0  0
   -3.2346  -21.6809    0.0000 C   0  0  0  0  0  0  0  0  0  0  0  0
   -2.5241  -22.0961    0.0000 C   0  0  0  0  0  0  0  0  0  0  0  0
    0.3140  -23.5260    0.0000 C   0  0  0  0  0  0  0  0  0  0  0  0
    0.6506  -22.7726    0.0000 O   0  0  0  0  0  0  0  0  0  0  0  0
    0.7983  -24.1941    0.0000 N   0  0  0  0  0  0  0  0  0  0  0  0
    1.6190  -24.1088    0.0000 C   0  0  0  0  0  0  0  0  0  0  0  0
    1.9509  -23.3566    0.0000 C   0  0  0  0  0  0  0  0  0  0  0  0
    2.7707  -23.2711    0.0000 C   0  0  0  0  0  0  0  0  0  0  0  0
    2.0962  -24.7778    0.0000 C   0  0  0  0  0  0  0  0  0  0  0  0
   -4.6682  -21.6780    0.0000 Cl  0  0  0  0  0  0  0  0  0  0  0  0
    3.2562  -23.9353    0.0000 C   0  0  0  0  0  0  0  0  0  0  0  0
    2.9151  -24.6958    0.0000 C   0  0  0  0  0  0  0  0  0  0  0  0
    3.4006  -25.3677    0.0000 C   0  0  0  0  0  0  0  0  0  0  0  0
    4.2294  -25.2852    0.0000 C   0  0  0  0  0  0  0  0  0  0  0  0
    4.5704  -24.5246    0.0000 C   0  0  0  0  0  0  0  0  0  0  0  0
    4.0826  -23.8467    0.0000 N   0  0  0  0  0  0  0  0  0  0  0  0
    4.4193  -23.0934    0.0000 C   0  0  0  0  0  0  0  0  0  0  0  0
 12 13  2  0
  6  7  2  0
 12 14  1  0
  2  3  1  0
 14 15  1  0
  7  8  1  0
 15 16  2  0
  3  4  2  0
 16 17  1  0
 17 20  2  0
  8  9  2  0
 21 18  2  0
 18 15  1  0
  4  5  1  0
  9 19  1  0
 20 21  1  0
  9 10  1  0
  5  1  2  0
 10 11  2  0
 11  6  1  0
  1  6  1  0
  1  2  1  0
 20 25  1  0
 21 22  1  0
 22 23  1  0
 23 24  1  0
 24 25  1  0
  3 12  1  0
 25 26  1  0
M  END
> <chembl_id>
CHEMBL250877

> <chembl_pref_name>
None

$$$$

     RDKit          2D

 30 33  0  0  0  0  0  0  0  0999 V2000
    6.2385   -0.8914    0.0000 C   0  0  0  0  0  0  0  0  0  0  0  0
    5.2003   -1.4932    0.0000 C   0  0  0  0  0  0  0  0  0  0  0  0
    3.8990   -0.7455    0.0000 C   0  0  0  0  0  0  0  0  0  0  0  0
    2.6003   -1.4977    0.0000 O   0  0  0  0  0  0  0  0  0  0  0  0
    1.2990   -0.7500    0.0000 C   0  0  0  0  0  0  0  0  0  0  0  0
    1.2990    0.7500    0.0000 C   0  0  0  0  0  0  0  0  0  0  0  0
    0.0000    1.5000    0.0000 C   0  0  0  0  0  0  0  0  0  0  0  0
    0.0000    2.7000    0.0000 F   0  0  0  0  0  0  0  0  0  0  0  0
   -1.2990    0.7500    0.0000 C   0  0  0  0  0  0  0  0  0  0  0  0
   -1.2990   -0.7500    0.0000 C   0  0  0  0  0  0  0  0  0  0  0  0
    0.0000   -1.5000    0.0000 C   0  0  0  0  0  0  0  0  0  0  0  0
    0.0000   -3.0008    0.0000 C   0  0  0  0  0  0  0  0  0  0  0  0
   -0.7481   -4.2096    0.0000 C   0  0  0  0  0  0  0  0  0  0  0  0
    0.7519   -4.2072    0.0000 C   0  0  0  0  0  0  0  0  0  0  0  0
   -2.6003    1.4977    0.0000 C   0  0  0  0  0  0  0  0  0  0  0  0
   -2.6024    2.6977    0.0000 O   0  0  0  0  0  0  0  0  0  0  0  0
   -3.8990    0.7455    0.0000 N   0  0  0  0  0  0  0  0  0  0  0  0
   -5.2003    1.4932    0.0000 S   0  0  0  0  0  0  0  0  0  0  0  0
   -4.1622    2.0952    0.0000 O   0  0  0  0  0  0  0  0  0  0  0  0
   -5.2024    2.6932    0.0000 O   0  0  0  0  0  0  0  0  0  0  0  0
   -6.4990    0.7409    0.0000 C   0  0  0  0  0  0  0  0  0  0  0  0
   -7.1680   -0.5133    0.0000 C   0  0  0  0  0  0  0  0  0  0  0  0
   -7.9198    0.7846    0.0000 C   0  0  0  0  0  0  0  0  0  0  0  0
    3.9026   -2.2040    0.0000 C   0  0  0  0  0  0  0  0  0  0  0  0
    3.9055   -3.7040    0.0000 C   0  0  0  0  0  0  0  0  0  0  0  0
    5.2059   -4.4515    0.0000 C   0  0  0  0  0  0  0  0  0  0  0  0
    4.1539   -5.0288    0.0000 F   0  0  0  0  0  0  0  0  0  0  0  0
    6.2601   -5.0249    0.0000 F   0  0  0  0  0  0  0  0  0  0  0  0
    6.5036   -3.6990    0.0000 C   0  0  0  0  0  0  0  0  0  0  0  0
    6.5007   -2.1990    0.0000 C   0  0  0  0  0  0  0  0  0  0  0  0
  1  2  1  0
  2  3  1  0
  3  4  1  0
  4  5  1  0
  5  6  2  0
  6  7  1  0
  7  8  1  0
  7  9  2  0
  9 10  1  0
 10 11  2  0
 11  5  1  0
 11 12  1  0
 12 13  1  0
 13 14  1  0
 14 12  1  0
  9 15  1  0
 15 16  2  0
 15 17  1  0
 17 18  1  0
 18 19  2  0
 18 20  2  0
 18 21  1  0
 21 22  1  0
 22 23  1  0
 23 21  1  0
  2 24  1  0
 24 25  1  0
 25 26  1  0
 26 27  1  0
 26 28  1  0
 26 29  1  0
 29 30  1  0
 30  2  1  0
M  END
> <chembl_id>
CHEMBL3662077

> <chembl_pref_name>
None

$$$$

     RDKit          2D

 30 34  0  0  0  0  0  0  0  0999 V2000
    0.5746   -1.0535    0.0000 C   0  0  0  0  0  0  0  0  0  0  0  0
    0.0000    0.0000    0.0000 C   0  0  0  0  0  0  0  0  0  0  0  0
    0.7089    1.2999    0.0000 C   0  0  0  0  0  0  0  0  0  0  0  0
   -0.0410    2.6000    0.0000 O   0  0  0  0  0  0  0  0  0  0  0  0
    0.7091    3.8999    0.0000 C   0  0  0  0  0  0  0  0  0  0  0  0
    2.2092    3.8972    0.0000 C   0  0  0  0  0  0  0  0  0  0  0  0
    2.9616    5.1949    0.0000 C   0  0  0  0  0  0  0  0  0  0  0  0
    4.1616    5.1927    0.0000 F   0  0  0  0  0  0  0  0  0  0  0  0
    2.2139    6.4953    0.0000 C   0  0  0  0  0  0  0  0  0  0  0  0
    0.7139    6.4981    0.0000 C   0  0  0  0  0  0  0  0  0  0  0  0
   -0.0384    5.2004    0.0000 C   0  0  0  0  0  0  0  0  0  0  0  0
   -1.5392    5.2032    0.0000 C   0  0  0  0  0  0  0  0  0  0  0  0
   -2.7494    4.4573    0.0000 C   0  0  0  0  0  0  0  0  0  0  0  0
   -2.7443    5.9573    0.0000 C   0  0  0  0  0  0  0  0  0  0  0  0
    2.9640    7.7953    0.0000 C   0  0  0  0  0  0  0  0  0  0  0  0
    4.1640    7.7952    0.0000 O   0  0  0  0  0  0  0  0  0  0  0  0
    2.2141    9.0953    0.0000 N   0  0  0  0  0  0  0  0  0  0  0  0
    2.9643   10.3952    0.0000 S   0  0  0  0  0  0  0  0  0  0  0  0
    3.5643    9.3561    0.0000 O   0  0  0  0  0  0  0  0  0  0  0  0
    4.1643   10.3951    0.0000 O   0  0  0  0  0  0  0  0  0  0  0  0
    2.2144   11.6953    0.0000 C   0  0  0  0  0  0  0  0  0  0  0  0
    0.9613   12.3665    0.0000 C   0  0  0  0  0  0  0  0  0  0  0  0
    2.2607   13.1160    0.0000 C   0  0  0  0  0  0  0  0  0  0  0  0
   -0.7526    1.2945    0.0000 C   0  0  0  0  0  0  0  0  0  0  0  0
   -2.2578    1.2945    0.0000 C   0  0  0  0  0  0  0  0  0  0  0  0
   -3.0105    0.0000    0.0000 C   0  0  0  0  0  0  0  0  0  0  0  0
   -4.3050    0.7526    0.0000 C   0  0  0  0  0  0  0  0  0  0  0  0
   -4.3050   -0.7526    0.0000 C   0  0  0  0  0  0  0  0  0  0  0  0
   -2.2578   -1.2945    0.0000 C   0  0  0  0  0  0  0  0  0  0  0  0
   -0.7526   -1.2945    0.0000 C   0  0  0  0  0  0  0  0  0  0  0  0
  1  2  1  0
  2  3  1  0
  3  4  1  0
  4  5  1  0
  5  6  2  0
  6  7  1  0
  7  8  1  0
  7  9  2  0
  9 10  1  0
 10 11  2  0
 11  5  1  0
 11 12  1  0
 12 13  1  0
 13 14  1  0
 14 12  1  0
  9 15  1  0
 15 16  2  0
 15 17  1  0
 17 18  1  0
 18 19  2  0
 18 20  2  0
 18 21  1  0
 21 22  1  0
 22 23  1  0
 23 21  1  0
  2 24  1  0
 24 25  1  0
 25 26  1  0
 26 27  1  0
 27 28  1  0
 28 26  1  0
 26 29  1  0
 29 30  1  0
 30  2  1  0
M  END
> <chembl_id>
CHEMBL3662190

> <chembl_pref_name>
None

$$$$

     RDKit          2D

 29 31  0  0  0  0  0  0  0  0999 V2000
   -5.0306   -2.4541    0.0000 C   0  0  0  0  0  0  0  0  0  0  0  0
   -5.0318   -3.2815    0.0000 C   0  0  0  0  0  0  0  0  0  0  0  0
   -4.3169   -3.6944    0.0000 C   0  0  0  0  0  0  0  0  0  0  0  0
   -3.6005   -3.2810    0.0000 C   0  0  0  0  0  0  0  0  0  0  0  0
   -3.6034   -2.4505    0.0000 C   0  0  0  0  0  0  0  0  0  0  0  0
   -4.3187   -2.0414    0.0000 C   0  0  0  0  0  0  0  0  0  0  0  0
   -2.8889   -3.6916    0.0000 C   0  0  0  0  0  0  0  0  0  0  0  0
   -2.8890   -4.5178    0.0000 C   0  0  0  0  0  0  0  0  0  0  0  0
   -2.1747   -4.9291    0.0000 N   0  0  0  0  0  0  0  0  0  0  0  0
   -1.4599   -4.5154    0.0000 C   0  0  0  0  0  0  0  0  0  0  0  0
   -1.4639   -3.6861    0.0000 C   0  0  0  0  0  0  0  0  0  0  0  0
   -2.1787   -3.2785    0.0000 C   0  0  0  0  0  0  0  0  0  0  0  0
   -5.7452   -2.0418    0.0000 Cl  0  0  0  0  0  0  0  0  0  0  0  0
   -0.7515   -3.2700    0.0000 C   0  0  0  0  0  0  0  0  0  0  0  0
   -0.0349   -3.6788    0.0000 N   0  0  0  0  0  0  0  0  0  0  0  0
   -0.7557   -2.4450    0.0000 O   0  0  0  0  0  0  0  0  0  0  0  0
    0.6774   -3.2627    0.0000 C   0  0  0  0  0  0  0  0  0  0  0  0
    1.3940   -3.6715    0.0000 C   0  0  0  0  0  0  0  0  0  0  0  0
    1.3931   -4.4969    0.0000 C   0  0  0  0  0  0  0  0  0  0  0  0
    2.1088   -4.9057    0.0000 C   0  0  0  0  0  0  0  0  0  0  0  0
    2.8222   -4.4895    0.0000 C   0  0  0  0  0  0  0  0  0  0  0  0
    2.8153   -3.6603    0.0000 N   0  0  0  0  0  0  0  0  0  0  0  0
    2.0990   -3.2552    0.0000 C   0  0  0  0  0  0  0  0  0  0  0  0
    2.0913   -2.4303    0.0000 O   0  0  0  0  0  0  0  0  0  0  0  0
    2.8018   -2.0111    0.0000 C   0  0  0  0  0  0  0  0  0  0  0  0
    2.7941   -1.1861    0.0000 C   0  0  0  0  0  0  0  0  0  0  0  0
    3.5046   -0.7669    0.0000 F   0  0  0  0  0  0  0  0  0  0  0  0
    2.0758   -0.7803    0.0000 F   0  0  0  0  0  0  0  0  0  0  0  0
    2.7875   -0.3583    0.0000 F   0  0  0  0  0  0  0  0  0  0  0  0
 11 14  1  0
  3  4  2  0
 14 15  1  0
  7  8  2  0
 14 16  2  0
 15 17  1  0
  8  9  1  0
 17 18  1  0
  4  5  1  0
 18 19  2  0
  9 10  2  0
 19 20  1  0
  2  3  1  0
 20 21  2  0
 10 11  1  0
 21 22  1  0
  5  6  2  0
 22 23  2  0
 23 18  1  0
 11 12  2  0
 23 24  1  0
 12  7  1  0
 24 25  1  0
  4  7  1  0
 25 26  1  0
  6  1  1  0
 26 27  1  0
  1 13  1  0
 26 28  1  0
  1  2  2  0
 26 29  1  0
M  END
> <chembl_id>
CHEMBL1270208

> <chembl_pref_name>
None

$$$$

     RDKit          2D

 25 27  0  0  0  0  0  0  0  0999 V2000
   21.7718  -13.8174    0.0000 C   0  0  0  0  0  0  0  0  0  0  0  0
   22.4862  -14.2307    0.0000 C   0  0  0  0  0  0  0  0  0  0  0  0
   23.1987  -13.8162    0.0000 C   0  0  0  0  0  0  0  0  0  0  0  0
   23.1960  -12.9903    0.0000 C   0  0  0  0  0  0  0  0  0  0  0  0
   22.4750  -12.5807    0.0000 C   0  0  0  0  0  0  0  0  0  0  0  0
   21.7655  -12.9975    0.0000 C   0  0  0  0  0  0  0  0  0  0  0  0
   18.2027  -14.2416    0.0000 C   0  0  0  0  0  0  0  0  0  0  0  0
   18.2016  -15.0690    0.0000 C   0  0  0  0  0  0  0  0  0  0  0  0
   18.9164  -15.4819    0.0000 N   0  0  0  0  0  0  0  0  0  0  0  0
   19.6328  -15.0685    0.0000 C   0  0  0  0  0  0  0  0  0  0  0  0
   19.6300  -14.2380    0.0000 C   0  0  0  0  0  0  0  0  0  0  0  0
   18.9146  -13.8289    0.0000 N   0  0  0  0  0  0  0  0  0  0  0  0
   20.3429  -13.8228    0.0000 C   0  0  0  0  0  0  0  0  0  0  0  0
   21.0589  -14.2326    0.0000 N   0  0  0  0  0  0  0  0  0  0  0  0
   20.3398  -12.9978    0.0000 O   0  0  0  0  0  0  0  0  0  0  0  0
   17.4903  -13.8295    0.0000 C   0  0  0  0  0  0  0  0  0  0  0  0
   17.4914  -13.0034    0.0000 C   0  0  0  0  0  0  0  0  0  0  0  0
   16.7777  -12.5911    0.0000 C   0  0  0  0  0  0  0  0  0  0  0  0
   16.0623  -13.0038    0.0000 C   0  0  0  0  0  0  0  0  0  0  0  0
   16.0652  -13.8331    0.0000 C   0  0  0  0  0  0  0  0  0  0  0  0
   16.7795  -14.2416    0.0000 C   0  0  0  0  0  0  0  0  0  0  0  0
   22.4689  -11.7557    0.0000 C   0  0  0  0  0  0  0  0  0  0  0  0
   23.9145  -14.2263    0.0000 C   0  0  0  0  0  0  0  0  0  0  0  0
   15.3472  -12.5925    0.0000 C   0  0  0  0  0  0  0  0  0  0  0  0
   14.6292  -12.1792    0.0000 N   0  0  0  0  0  0  0  0  0  0  0  0
  6  1  1  0
 11 13  1  0
  1  2  2  0
 13 14  1  0
  3  4  2  0
 13 15  2  0
  7  8  2  0
 16 17  2  0
  8  9  1  0
 17 18  1  0
  4  5  1  0
 18 19  2  0
  9 10  2  0
 19 20  1  0
  2  3  1  0
 20 21  2  0
 21 16  1  0
  7 16  1  0
 14  1  1  0
 10 11  1  0
  5 22  1  0
  5  6  2  0
  3 23  1  0
 11 12  2  0
 19 24  1  0
 12  7  1  0
 24 25  3  0
M  END
> <chembl_id>
CHEMBL1278044

> <chembl_pref_name>
None

$$$$
 
     RDKit          2D

 35 39  0  0  0  0  0  0  0  0999 V2000
   15.9435   -4.4038    0.0000 O   0  0  0  0  0  0  0  0  0  0  0  0
   16.3562   -5.1136    0.0000 S   0  0  0  0  0  0  0  0  0  0  0  0
   16.7646   -4.4013    0.0000 O   0  0  0  0  0  0  0  0  0  0  0  0
    7.6133   -6.7562    0.0000 C   0  0  0  0  0  0  0  0  0  0  0  0
    7.6122   -7.5758    0.0000 C   0  0  0  0  0  0  0  0  0  0  0  0
    8.3202   -7.9847    0.0000 C   0  0  0  0  0  0  0  0  0  0  0  0
    9.0299   -7.5753    0.0000 C   0  0  0  0  0  0  0  0  0  0  0  0
    9.0271   -6.7526    0.0000 C   0  0  0  0  0  0  0  0  0  0  0  0
    8.3184   -6.3474    0.0000 C   0  0  0  0  0  0  0  0  0  0  0  0
    6.9041   -7.9838    0.0000 Cl  0  0  0  0  0  0  0  0  0  0  0  0
    8.3160   -5.5302    0.0000 Cl  0  0  0  0  0  0  0  0  0  0  0  0
    9.7382   -7.9828    0.0000 C   0  0  0  0  0  0  0  0  0  0  0  0
    9.7395   -8.8000    0.0000 C   0  0  0  0  0  0  0  0  0  0  0  0
   10.4453   -7.5731    0.0000 N   0  0  0  0  0  0  0  0  0  0  0  0
   11.1906   -7.8990    0.0000 C   0  0  0  0  0  0  0  0  0  0  0  0
   11.7364   -7.2908    0.0000 C   0  0  0  0  0  0  0  0  0  0  0  0
   11.3267   -6.5837    0.0000 C   0  0  0  0  0  0  0  0  0  0  0  0
   10.5277   -6.7550    0.0000 C   0  0  0  0  0  0  0  0  0  0  0  0
   12.5509   -7.2887    0.0000 N   0  0  0  0  0  0  0  0  0  0  0  0
   13.0350   -7.9436    0.0000 N   0  0  0  0  0  0  0  0  0  0  0  0
   13.8090   -7.6899    0.0000 C   0  0  0  0  0  0  0  0  0  0  0  0
   13.0315   -6.6259    0.0000 C   0  0  0  0  0  0  0  0  0  0  0  0
   13.8045   -6.8786    0.0000 C   0  0  0  0  0  0  0  0  0  0  0  0
   14.4078   -6.3360    0.0000 C   0  0  0  0  0  0  0  0  0  0  0  0
   14.2394   -5.5407    0.0000 C   0  0  0  0  0  0  0  0  0  0  0  0
   13.4622   -5.2907    0.0000 C   0  0  0  0  0  0  0  0  0  0  0  0
   12.8622   -5.8349    0.0000 C   0  0  0  0  0  0  0  0  0  0  0  0
   13.2897   -4.4920    0.0000 F   0  0  0  0  0  0  0  0  0  0  0  0
   14.9447   -5.1260    0.0000 C   0  0  0  0  0  0  0  0  0  0  0  0
   15.6556   -5.5290    0.0000 N   0  0  0  0  0  0  0  0  0  0  0  0
   14.9383   -4.3089    0.0000 O   0  0  0  0  0  0  0  0  0  0  0  0
   14.4721   -8.1675    0.0000 C   0  0  0  0  0  0  0  0  0  0  0  0
   17.0710   -5.5179    0.0000 C   0  0  0  0  0  0  0  0  0  0  0  0
   17.4884   -6.2195    0.0000 C   0  0  0  0  0  0  0  0  0  0  0  0
   17.8914   -5.5086    0.0000 C   0  0  0  0  0  0  0  0  0  0  0  0
  2  1  2  0
  3  2  2  0
  4  5  2  0
  5  6  1  0
  6  7  2  0
  7  8  1  0
  8  9  2  0
  9  4  1  0
  5 10  1  0
  9 11  1  0
  7 12  1  0
 12 13  1  6
 12 14  1  0
 14 15  1  0
 15 16  1  0
 16 17  1  0
 17 18  1  0
 18 14  1  0
 16 19  1  1
 19 20  1  0
 20 21  2  0
 21 23  1  0
 22 19  1  0
 22 23  2  0
 23 24  1  0
 24 25  2  0
 25 26  1  0
 26 27  2  0
 27 22  1  0
 26 28  1  0
 25 29  1  0
 29 30  1  0
 29 31  2  0
 21 32  1  0
 30  2  1  0
  2 33  1  0
 34 33  1  0
 35 34  1  0
 33 35  1  0
M  END
> <chembl_id>
CHEMBL4471012

> <chembl_pref_name>
None

$$$$

     RDKit          2D

 29 32  0  0  0  0  0  0  0  0999 V2000
    0.1217  -10.6516    0.0000 C   0  0  0  0  0  0  0  0  0  0  0  0
    0.8353  -11.0644    0.0000 N   0  0  0  0  0  0  0  0  0  0  0  0
    1.5470  -10.6503    0.0000 C   0  0  0  0  0  0  0  0  0  0  0  0
    1.5443   -9.8253    0.0000 C   0  0  0  0  0  0  0  0  0  0  0  0
    0.8241   -9.4162    0.0000 C   0  0  0  0  0  0  0  0  0  0  0  0
    0.1154   -9.8325    0.0000 C   0  0  0  0  0  0  0  0  0  0  0  0
   -4.1677   -9.8475    0.0000 C   0  0  0  0  0  0  0  0  0  0  0  0
   -4.1688  -10.6740    0.0000 C   0  0  0  0  0  0  0  0  0  0  0  0
   -3.4548  -11.0863    0.0000 N   0  0  0  0  0  0  0  0  0  0  0  0
   -2.7392  -10.6735    0.0000 C   0  0  0  0  0  0  0  0  0  0  0  0
   -2.7420   -9.8439    0.0000 C   0  0  0  0  0  0  0  0  0  0  0  0
   -3.4566   -9.4352    0.0000 N   0  0  0  0  0  0  0  0  0  0  0  0
   -2.0299   -9.4292    0.0000 C   0  0  0  0  0  0  0  0  0  0  0  0
   -1.3147   -9.8385    0.0000 N   0  0  0  0  0  0  0  0  0  0  0  0
   -2.0330   -8.6051    0.0000 O   0  0  0  0  0  0  0  0  0  0  0  0
   -4.8794   -9.4358    0.0000 C   0  0  0  0  0  0  0  0  0  0  0  0
   -4.8783   -8.6106    0.0000 C   0  0  0  0  0  0  0  0  0  0  0  0
   -5.5912   -8.1988    0.0000 C   0  0  0  0  0  0  0  0  0  0  0  0
   -6.3138   -8.6111    0.0000 C   0  0  0  0  0  0  0  0  0  0  0  0
   -6.3083   -9.4395    0.0000 C   0  0  0  0  0  0  0  0  0  0  0  0
   -5.5894   -9.8475    0.0000 C   0  0  0  0  0  0  0  0  0  0  0  0
   -7.0228   -8.2001    0.0000 Cl  0  0  0  0  0  0  0  0  0  0  0  0
   -0.6025   -9.4238    0.0000 C   0  0  0  0  0  0  0  0  0  0  0  0
    0.8179   -8.5951    0.0000 N   0  0  0  0  0  0  0  0  0  0  0  0
    1.5304   -8.1790    0.0000 C   0  0  0  0  0  0  0  0  0  0  0  0
    1.5263   -7.3585    0.0000 C   0  0  0  0  0  0  0  0  0  0  0  0
    0.8115   -6.9479    0.0000 O   0  0  0  0  0  0  0  0  0  0  0  0
    0.0990   -7.3639    0.0000 C   0  0  0  0  0  0  0  0  0  0  0  0
    0.1014   -8.1906    0.0000 C   0  0  0  0  0  0  0  0  0  0  0  0
  3  4  2  0
 13 15  2  0
  7  8  2  0
 16 17  2  0
  8  9  1  0
 17 18  1  0
  4  5  1  0
 18 19  2  0
  9 10  2  0
 19 20  1  0
  2  3  1  0
 20 21  2  0
 21 16  1  0
  7 16  1  0
 10 11  1  0
 19 22  1  0
  5  6  2  0
 14 23  1  0
 23  6  1  0
 24 25  1  0
 11 12  2  0
 12  7  1  0
  6  1  1  0
 11 13  1  0
  1  2  2  0
 13 14  1  0
 24 29  1  0
 25 26  1  0
 26 27  1  0
 27 28  1  0
 28 29  1  0
  5 24  1  0
M  END
> <chembl_id>
CHEMBL1277793

> <chembl_pref_name>
None

$$$$

     RDKit          2D

 25 27  0  0  0  0  0  0  0  0999 V2000
    0.3552  -13.4924    0.0000 C   0  0  0  0  0  0  0  0  0  0  0  0
    1.0696  -13.9057    0.0000 C   0  0  0  0  0  0  0  0  0  0  0  0
    1.7820  -13.4912    0.0000 C   0  0  0  0  0  0  0  0  0  0  0  0
    1.7793  -12.6653    0.0000 C   0  0  0  0  0  0  0  0  0  0  0  0
    1.0583  -12.2557    0.0000 C   0  0  0  0  0  0  0  0  0  0  0  0
    0.3488  -12.6725    0.0000 C   0  0  0  0  0  0  0  0  0  0  0  0
   -3.2139  -13.9166    0.0000 C   0  0  0  0  0  0  0  0  0  0  0  0
   -3.2151  -14.7440    0.0000 C   0  0  0  0  0  0  0  0  0  0  0  0
   -2.5003  -15.1569    0.0000 N   0  0  0  0  0  0  0  0  0  0  0  0
   -1.7838  -14.7435    0.0000 C   0  0  0  0  0  0  0  0  0  0  0  0
   -1.7867  -13.9130    0.0000 C   0  0  0  0  0  0  0  0  0  0  0  0
   -2.5021  -13.5039    0.0000 N   0  0  0  0  0  0  0  0  0  0  0  0
   -1.0738  -13.4978    0.0000 C   0  0  0  0  0  0  0  0  0  0  0  0
   -0.3578  -13.9076    0.0000 N   0  0  0  0  0  0  0  0  0  0  0  0
   -1.0769  -12.6728    0.0000 O   0  0  0  0  0  0  0  0  0  0  0  0
   -3.9264  -13.5045    0.0000 C   0  0  0  0  0  0  0  0  0  0  0  0
   -3.9253  -12.6784    0.0000 C   0  0  0  0  0  0  0  0  0  0  0  0
   -4.6390  -12.2661    0.0000 C   0  0  0  0  0  0  0  0  0  0  0  0
   -5.3543  -12.6788    0.0000 C   0  0  0  0  0  0  0  0  0  0  0  0
   -5.3515  -13.5081    0.0000 C   0  0  0  0  0  0  0  0  0  0  0  0
   -4.6372  -13.9166    0.0000 C   0  0  0  0  0  0  0  0  0  0  0  0
   -6.0722  -12.2675    0.0000 O   0  0  0  0  0  0  0  0  0  0  0  0
   -6.7834  -12.6811    0.0000 C   0  0  0  0  0  0  0  0  0  0  0  0
    2.4978  -13.9013    0.0000 C   0  0  0  0  0  0  0  0  0  0  0  0
   -7.5016  -12.2697    0.0000 C   0  0  0  0  0  0  0  0  0  0  0  0
  6  1  1  0
 11 13  1  0
  1  2  2  0
 13 14  1  0
  3  4  2  0
 13 15  2  0
  7  8  2  0
 16 17  2  0
  8  9  1  0
 17 18  1  0
  4  5  1  0
 18 19  2  0
  9 10  2  0
 19 20  1  0
  2  3  1  0
 20 21  2  0
 21 16  1  0
  7 16  1  0
 10 11  1  0
 19 22  1  0
  5  6  2  0
 22 23  1  0
 14  1  1  0
 11 12  2  0
  3 24  1  0
 12  7  1  0
 23 25  1  0
M  END
> <chembl_id>
CHEMBL1277958

> <chembl_pref_name>
None

$$$$

     RDKit          2D

 21 23  0  0  0  0  0  0  0  0999 V2000
   16.7365    0.7084    0.0000 C   0  0  0  0  0  0  0  0  0  0  0  0
   17.5637    0.7141    0.0000 C   0  0  0  0  0  0  0  0  0  0  0  0
   17.9706    1.4323    0.0000 C   0  0  0  0  0  0  0  0  0  0  0  0
   17.5514    2.1451    0.0000 C   0  0  0  0  0  0  0  0  0  0  0  0
   16.7210    2.1354    0.0000 C   0  0  0  0  0  0  0  0  0  0  0  0
   16.3179    1.4167    0.0000 C   0  0  0  0  0  0  0  0  0  0  0  0
   15.4931    1.4074    0.0000 Cl  0  0  0  0  0  0  0  0  0  0  0  0
   18.7954    1.4389    0.0000 C   0  0  0  0  0  0  0  0  0  0  0  0
   19.2883    0.7769    0.0000 C   0  0  0  0  0  0  0  0  0  0  0  0
   20.0707    1.0380    0.0000 C   0  0  0  0  0  0  0  0  0  0  0  0
   20.0641    1.8630    0.0000 C   0  0  0  0  0  0  0  0  0  0  0  0
   19.2775    2.1114    0.0000 O   0  0  0  0  0  0  0  0  0  0  0  0
   20.7731    2.2766    0.0000 C   0  0  0  0  0  0  0  0  0  0  0  0
   21.4893    1.8673    0.0000 N   0  0  0  0  0  0  0  0  0  0  0  0
   20.7694    3.1014    0.0000 O   0  0  0  0  0  0  0  0  0  0  0  0
   21.4900    1.0404    0.0000 C   0  0  0  0  0  0  0  0  0  0  0  0
   22.2021    0.6313    0.0000 C   0  0  0  0  0  0  0  0  0  0  0  0
   22.9171    1.0434    0.0000 N   0  0  0  0  0  0  0  0  0  0  0  0
   22.9153    1.8692    0.0000 C   0  0  0  0  0  0  0  0  0  0  0  0
   22.1987    2.2830    0.0000 C   0  0  0  0  0  0  0  0  0  0  0  0
   23.6317    0.6314    0.0000 C   0  0  0  0  0  0  0  0  0  0  0  0
  5  6  2  0
  9 10  1  0
 10 11  2  0
 11 12  1  0
 12  8  1  0
  6  1  1  0
 11 13  1  0
  1  2  2  0
 13 14  1  0
  6  7  1  0
 13 15  2  0
 14 16  1  0
  3  4  2  0
  3  8  1  0
  8  9  2  0
  4  5  1  0
 14 20  1  0
 16 17  1  0
 17 18  1  0
 18 19  1  0
 19 20  1  0
  2  3  1  0
 18 21  1  0
M  END
> <chembl_id>
CHEMBL482677

> <chembl_pref_name>
None

$$$$

     RDKit          2D

 25 28  0  0  0  0  0  0  0  0999 V2000
   11.0156  -23.8994    0.0000 C   0  0  0  0  0  0  0  0  0  0  0  0
   11.7703  -23.5656    0.0000 O   0  0  0  0  0  0  0  0  0  0  0  0
   12.3225  -24.1791    0.0000 C   0  0  0  0  0  0  0  0  0  0  0  0
   11.9070  -24.8952    0.0000 C   0  0  0  0  0  0  0  0  0  0  0  0
   11.1017  -24.7188    0.0000 C   0  0  0  0  0  0  0  0  0  0  0  0
   10.3022  -23.4854    0.0000 C   0  0  0  0  0  0  0  0  0  0  0  0
    9.5866  -23.8989    0.0000 C   0  0  0  0  0  0  0  0  0  0  0  0
    8.8730  -23.4860    0.0000 C   0  0  0  0  0  0  0  0  0  0  0  0
    8.8736  -22.6599    0.0000 C   0  0  0  0  0  0  0  0  0  0  0  0
    9.5938  -22.2483    0.0000 C   0  0  0  0  0  0  0  0  0  0  0  0
   10.3046  -22.6636    0.0000 C   0  0  0  0  0  0  0  0  0  0  0  0
   13.1433  -24.0938    0.0000 C   0  0  0  0  0  0  0  0  0  0  0  0
   13.4799  -23.3403    0.0000 O   0  0  0  0  0  0  0  0  0  0  0  0
   13.6276  -24.7621    0.0000 N   0  0  0  0  0  0  0  0  0  0  0  0
   14.4485  -24.6767    0.0000 C   0  0  0  0  0  0  0  0  0  0  0  0
   14.7805  -23.9244    0.0000 C   0  0  0  0  0  0  0  0  0  0  0  0
   15.6005  -23.8389    0.0000 C   0  0  0  0  0  0  0  0  0  0  0  0
   14.9259  -25.3459    0.0000 C   0  0  0  0  0  0  0  0  0  0  0  0
    8.1600  -22.2454    0.0000 Cl  0  0  0  0  0  0  0  0  0  0  0  0
   16.0861  -24.5032    0.0000 C   0  0  0  0  0  0  0  0  0  0  0  0
   15.7449  -25.2639    0.0000 C   0  0  0  0  0  0  0  0  0  0  0  0
   16.2305  -25.9359    0.0000 C   0  0  0  0  0  0  0  0  0  0  0  0
   17.0595  -25.8534    0.0000 C   0  0  0  0  0  0  0  0  0  0  0  0
   17.4006  -25.0927    0.0000 C   0  0  0  0  0  0  0  0  0  0  0  0
   16.9127  -24.4145    0.0000 N   0  0  0  0  0  0  0  0  0  0  0  0
  3 12  1  0
 12 13  2  0
  6  7  2  0
 12 14  1  0
  2  3  1  0
 14 15  1  0
  7  8  1  0
 15 16  2  0
  3  4  2  0
 16 17  1  0
 17 20  2  0
  8  9  2  0
 21 18  2  0
 18 15  1  0
  4  5  1  0
  9 19  1  0
 20 21  1  0
  9 10  1  0
  5  1  2  0
 10 11  2  0
 11  6  1  0
  1  6  1  0
  1  2  1  0
 20 25  1  0
 21 22  1  0
 22 23  2  0
 23 24  1  0
 24 25  2  0
M  END
> <chembl_id>
CHEMBL269764

> <chembl_pref_name>
None

$$$$

     RDKit          2D

 32 35  0  0  0  0  0  0  0  0999 V2000
    2.3383   -1.3500    0.0000 F   0  0  0  0  0  0  0  0  0  0  0  0
    1.2990   -0.7500    0.0000 C   0  0  0  0  0  0  0  0  0  0  0  0
    1.2990    0.7500    0.0000 C   0  0  0  0  0  0  0  0  0  0  0  0
    0.0000    1.5000    0.0000 C   0  0  0  0  0  0  0  0  0  0  0  0
    0.0000    3.0000    0.0000 N   0  0  0  0  0  0  0  0  0  0  0  0
   -1.2991    3.7500    0.0000 C   0  0  0  0  0  0  0  0  0  0  0  0
   -2.5981    3.0000    0.0000 C   0  0  0  0  0  0  0  0  0  0  0  0
   -2.5981    1.5000    0.0000 O   0  0  0  0  0  0  0  0  0  0  0  0
   -1.2990    0.7500    0.0000 C   0  0  0  0  0  0  0  0  0  0  0  0
   -1.2990   -0.7500    0.0000 C   0  0  0  0  0  0  0  0  0  0  0  0
    0.0000   -1.5000    0.0000 C   0  0  0  0  0  0  0  0  0  0  0  0
    0.0000   -3.0008    0.0000 S   0  0  0  0  0  0  0  0  0  0  0  0
    1.0394   -3.6005    0.0000 O   0  0  0  0  0  0  0  0  0  0  0  0
    0.0006   -4.2008    0.0000 O   0  0  0  0  0  0  0  0  0  0  0  0
   -1.2993   -3.7521    0.0000 N   0  0  0  0  0  0  0  0  0  0  0  0
   -1.2993   -5.2529    0.0000 C   0  0  0  0  0  0  0  0  0  0  0  0
   -2.5110   -6.1152    0.0000 N   0  0  0  0  0  0  0  0  0  0  0  0
   -2.0445   -7.5408    0.0000 C   0  0  0  0  0  0  0  0  0  0  0  0
   -0.5445   -7.5378    0.0000 C   0  0  0  0  0  0  0  0  0  0  0  0
   -0.0840   -6.1102    0.0000 S   0  0  0  0  0  0  0  0  0  0  0  0
    1.2997    3.7504    0.0000 C   0  0  0  0  0  0  0  0  0  0  0  0
    1.2974    5.2505    0.0000 C   0  0  0  0  0  0  0  0  0  0  0  0
    2.5952    6.0025    0.0000 C   0  0  0  0  0  0  0  0  0  0  0  0
    3.8954    5.2546    0.0000 C   0  0  0  0  0  0  0  0  0  0  0  0
    3.8978    3.7546    0.0000 C   0  0  0  0  0  0  0  0  0  0  0  0
    2.6000    3.0025    0.0000 C   0  0  0  0  0  0  0  0  0  0  0  0
    2.6025    1.5017    0.0000 C   0  0  0  0  0  0  0  0  0  0  0  0
    2.6044    0.3017    0.0000 N   0  0  0  0  0  0  0  0  0  0  0  0
    5.1940    6.0071    0.0000 C   0  0  0  0  0  0  0  0  0  0  0  0
    5.1929    7.2071    0.0000 F   0  0  0  0  0  0  0  0  0  0  0  0
    6.2340    5.4084    0.0000 F   0  0  0  0  0  0  0  0  0  0  0  0
    6.2326    6.6082    0.0000 F   0  0  0  0  0  0  0  0  0  0  0  0
  1  2  1  0
  2  3  2  0
  3  4  1  0
  4  5  1  0
  5  6  1  0
  6  7  1  0
  7  8  1  0
  8  9  1  0
  9  4  2  0
  9 10  1  0
 10 11  2  0
 11  2  1  0
 11 12  1  0
 12 13  2  0
 12 14  2  0
 12 15  1  0
 15 16  1  0
 16 17  2  0
 17 18  1  0
 18 19  2  0
 19 20  1  0
 20 16  1  0
  5 21  1  0
 21 22  2  0
 22 23  1  0
 23 24  2  0
 24 25  1  0
 25 26  2  0
 26 21  1  0
 26 27  1  0
 27 28  3  0
 24 29  1  0
 29 30  1  0
 29 31  1  0
 29 32  1  0
M  END
> <chembl_id>
CHEMBL3950353

> <chembl_pref_name>
None

$$$$
 
     RDKit          2D

 37 40  0  0  0  0  0  0  0  0999 V2000
   13.7519   -4.4657    0.0000 O   0  0  0  0  0  0  0  0  0  0  0  0
   14.1646   -5.1755    0.0000 S   0  0  0  0  0  0  0  0  0  0  0  0
   14.5731   -4.4632    0.0000 O   0  0  0  0  0  0  0  0  0  0  0  0
   12.7531   -5.1879    0.0000 C   0  0  0  0  0  0  0  0  0  0  0  0
   13.4640   -5.5909    0.0000 N   0  0  0  0  0  0  0  0  0  0  0  0
   12.7467   -4.3708    0.0000 O   0  0  0  0  0  0  0  0  0  0  0  0
   14.8794   -5.5798    0.0000 C   0  0  0  0  0  0  0  0  0  0  0  0
   12.0513   -5.6004    0.0000 C   0  0  0  0  0  0  0  0  0  0  0  0
   11.3401   -5.1957    0.0000 C   0  0  0  0  0  0  0  0  0  0  0  0
   10.6361   -5.6092    0.0000 C   0  0  0  0  0  0  0  0  0  0  0  0
   10.6421   -6.4272    0.0000 C   0  0  0  0  0  0  0  0  0  0  0  0
   11.3579   -6.8300    0.0000 C   0  0  0  0  0  0  0  0  0  0  0  0
   12.0590   -6.4143    0.0000 C   0  0  0  0  0  0  0  0  0  0  0  0
   12.7710   -6.8153    0.0000 F   0  0  0  0  0  0  0  0  0  0  0  0
    9.9260   -5.2099    0.0000 C   0  0  0  0  0  0  0  0  0  0  0  0
    9.5122   -4.5052    0.0000 C   0  0  0  0  0  0  0  0  0  0  0  0
    9.1088   -5.2159    0.0000 C   0  0  0  0  0  0  0  0  0  0  0  0
    9.9381   -6.8423    0.0000 O   0  0  0  0  0  0  0  0  0  0  0  0
    9.9456   -7.6595    0.0000 C   0  0  0  0  0  0  0  0  0  0  0  0
    9.2417   -8.0745    0.0000 C   0  0  0  0  0  0  0  0  0  0  0  0
    8.5325   -7.6704    0.0000 C   0  0  0  0  0  0  0  0  0  0  0  0
    7.8306   -8.0820    0.0000 C   0  0  0  0  0  0  0  0  0  0  0  0
    7.8339   -8.8995    0.0000 N   0  0  0  0  0  0  0  0  0  0  0  0
    8.5452   -9.3038    0.0000 C   0  0  0  0  0  0  0  0  0  0  0  0
    9.2532   -8.8905    0.0000 C   0  0  0  0  0  0  0  0  0  0  0  0
    7.1285   -9.3119    0.0000 C   0  0  0  0  0  0  0  0  0  0  0  0
    7.1329  -10.1291    0.0000 C   0  0  0  0  0  0  0  0  0  0  0  0
    6.4253  -10.5384    0.0000 C   0  0  0  0  0  0  0  0  0  0  0  0
    6.4294  -11.3548    0.0000 C   0  0  0  0  0  0  0  0  0  0  0  0
    7.1398  -11.7604    0.0000 C   0  0  0  0  0  0  0  0  0  0  0  0
    7.8477  -11.3435    0.0000 C   0  0  0  0  0  0  0  0  0  0  0  0
    7.8401  -10.5285    0.0000 C   0  0  0  0  0  0  0  0  0  0  0  0
    5.7164  -10.1318    0.0000 Cl  0  0  0  0  0  0  0  0  0  0  0  0
    8.5590  -11.7458    0.0000 C   0  0  0  0  0  0  0  0  0  0  0  0
    8.5663  -12.5630    0.0000 F   0  0  0  0  0  0  0  0  0  0  0  0
    9.2630  -11.3309    0.0000 F   0  0  0  0  0  0  0  0  0  0  0  0
    9.2615  -12.1506    0.0000 F   0  0  0  0  0  0  0  0  0  0  0  0
  2  1  2  0
  3  2  2  0
  4  5  1  0
  4  6  2  0
  5  2  1  0
  2  7  1  0
  8  9  2  0
  9 10  1  0
 10 11  2  0
 11 12  1  0
 12 13  2  0
 13  8  1  0
  4  8  1  0
 13 14  1  0
 16 15  1  0
 17 16  1  0
 15 17  1  0
 10 15  1  0
 11 18  1  0
 18 19  1  0
 19 20  1  0
 20 21  1  0
 20 25  1  0
 21 22  1  0
 22 23  1  0
 23 24  1  0
 24 25  1  0
 23 26  1  0
 26 27  1  0
 27 28  2  0
 28 29  1  0
 29 30  2  0
 30 31  1  0
 31 32  2  0
 32 27  1  0
 28 33  1  0
 31 34  1  0
 34 35  1  0
 34 36  1  0
 34 37  1  0
M  END
> <chembl_id>
CHEMBL4444707

> <chembl_pref_name>
None

$$$$

     RDKit          2D

 26 29  0  0  0  0  0  0  0  0999 V2000
    9.9203   -5.6249    0.0000 C   0  0  0  0  0  0  0  0  0  0  0  0
   10.6748   -5.2913    0.0000 O   0  0  0  0  0  0  0  0  0  0  0  0
   11.2268   -5.9046    0.0000 C   0  0  0  0  0  0  0  0  0  0  0  0
   10.8115   -6.6204    0.0000 C   0  0  0  0  0  0  0  0  0  0  0  0
   10.0064   -6.4442    0.0000 C   0  0  0  0  0  0  0  0  0  0  0  0
    9.2072   -5.2112    0.0000 C   0  0  0  0  0  0  0  0  0  0  0  0
    8.4919   -5.6245    0.0000 C   0  0  0  0  0  0  0  0  0  0  0  0
    7.7784   -5.2117    0.0000 C   0  0  0  0  0  0  0  0  0  0  0  0
    7.7790   -4.3859    0.0000 C   0  0  0  0  0  0  0  0  0  0  0  0
    8.4990   -3.9744    0.0000 C   0  0  0  0  0  0  0  0  0  0  0  0
    9.2095   -4.3895    0.0000 C   0  0  0  0  0  0  0  0  0  0  0  0
   12.0474   -5.8193    0.0000 C   0  0  0  0  0  0  0  0  0  0  0  0
   12.3838   -5.0660    0.0000 O   0  0  0  0  0  0  0  0  0  0  0  0
   12.5315   -6.4873    0.0000 N   0  0  0  0  0  0  0  0  0  0  0  0
   13.3521   -6.4021    0.0000 C   0  0  0  0  0  0  0  0  0  0  0  0
   13.6840   -5.6500    0.0000 C   0  0  0  0  0  0  0  0  0  0  0  0
   14.5038   -5.5644    0.0000 C   0  0  0  0  0  0  0  0  0  0  0  0
   14.9888   -6.2329    0.0000 C   0  0  0  0  0  0  0  0  0  0  0  0
   14.6482   -6.9890    0.0000 C   0  0  0  0  0  0  0  0  0  0  0  0
   13.8294   -7.0709    0.0000 C   0  0  0  0  0  0  0  0  0  0  0  0
    7.0656   -3.9715    0.0000 Cl  0  0  0  0  0  0  0  0  0  0  0  0
   14.8399   -4.8110    0.0000 C   0  0  0  0  0  0  0  0  0  0  0  0
   15.6438   -4.6377    0.0000 N   0  0  0  0  0  0  0  0  0  0  0  0
   15.7306   -3.8173    0.0000 C   0  0  0  0  0  0  0  0  0  0  0  0
   14.9771   -3.4812    0.0000 C   0  0  0  0  0  0  0  0  0  0  0  0
   14.4247   -4.0940    0.0000 O   0  0  0  0  0  0  0  0  0  0  0  0
 12 13  2  0
  6  7  2  0
 12 14  1  0
  2  3  1  0
 14 15  1  0
  7  8  1  0
 15 16  2  0
  3  4  2  0
 16 17  1  0
  8  9  2  0
 17 18  2  0
  4  5  1  0
 18 19  1  0
  9 10  1  0
 19 20  2  0
 20 15  1  0
  5  1  2  0
  9 21  1  0
 10 11  2  0
 17 22  1  0
 22 23  2  0
 11  6  1  0
  1  6  1  0
  1  2  1  0
  3 12  1  0
 23 24  1  0
 24 25  1  0
 25 26  1  0
 26 22  1  0
M  END
> <chembl_id>
CHEMBL250698

> <chembl_pref_name>
None

$$$$
