Molecule_0
     RDKit          3D

 41 43  0  0  0  0  0  0  0  0999 V2000
   -6.4853   -1.1713    0.1373 C   0  0  0  0  0  0  0  0  0  0  0  0
   -5.1729   -1.4516    0.6050 O   0  0  0  0  0  0  0  0  0  0  0  0
   -4.1418   -0.7401    0.0509 C   0  0  0  0  0  0  0  0  0  0  0  0
   -2.8764   -1.0690    0.5543 C   0  0  0  0  0  0  0  0  0  0  0  0
   -1.7322   -0.4264    0.0841 C   0  0  0  0  0  0  0  0  0  0  0  0
   -1.8712    0.5556   -0.9022 C   0  0  0  0  0  0  0  0  0  0  0  0
   -3.1279    0.8941   -1.4137 C   0  0  0  0  0  0  0  0  0  0  0  0
   -4.2654    0.2432   -0.9340 C   0  0  0  0  0  0  0  0  0  0  0  0
   -3.1028    1.8714   -2.3722 O   0  0  0  0  0  0  0  0  0  0  0  0
   -4.3498    2.2581   -2.9362 C   0  0  0  0  0  0  0  0  0  0  0  0
   -0.4272   -0.6980    0.5368 N   0  0  0  0  0  0  0  0  0  0  0  0
   -0.0176   -1.6104    1.4926 C   0  0  0  0  0  0  0  0  0  0  0  0
   -0.7518   -2.3607    2.1259 O   0  0  0  0  0  0  0  0  0  0  0  0
    1.4221   -1.6003    1.6879 C   0  0  0  0  0  0  0  0  0  0  0  0
    2.2292   -2.3384    2.5294 C   0  0  0  0  0  0  0  0  0  0  0  0
    3.5583   -1.9096    2.2975 C   0  0  0  0  0  0  0  0  0  0  0  0
    3.5001   -0.9299    1.3249 C   0  0  0  0  0  0  0  0  0  0  0  0
    2.1972   -0.7405    0.9525 O   0  0  0  0  0  0  0  0  0  0  0  0
    4.4963   -0.0991    0.6499 C   0  0  0  0  0  0  0  0  0  0  0  0
    5.8592   -0.2224    0.9649 C   0  0  0  0  0  0  0  0  0  0  0  0
    6.8207    0.5678    0.3245 C   0  0  0  0  0  0  0  0  0  0  0  0
    6.4279    1.4915   -0.6395 C   0  0  0  0  0  0  0  0  0  0  0  0
    5.0832    1.6315   -0.9682 C   0  0  0  0  0  0  0  0  0  0  0  0
    4.1243    0.8400   -0.3261 C   0  0  0  0  0  0  0  0  0  0  0  0
    7.6085    2.4626   -1.4271 Cl  0  0  0  0  0  0  0  0  0  0  0  0
   -7.1792   -1.8227    0.6773 H   0  0  0  0  0  0  0  0  0  0  0  0
   -6.7673   -0.1350    0.3507 H   0  0  0  0  0  0  0  0  0  0  0  0
   -6.5803   -1.3960   -0.9302 H   0  0  0  0  0  0  0  0  0  0  0  0
   -2.8223   -1.8381    1.3189 H   0  0  0  0  0  0  0  0  0  0  0  0
   -0.9992    1.0760   -1.2907 H   0  0  0  0  0  0  0  0  0  0  0  0
   -5.2414    0.4990   -1.3235 H   0  0  0  0  0  0  0  0  0  0  0  0
   -4.1532    3.0369   -3.6793 H   0  0  0  0  0  0  0  0  0  0  0  0
   -5.0119    2.6836   -2.1750 H   0  0  0  0  0  0  0  0  0  0  0  0
   -4.8269    1.4185   -3.4523 H   0  0  0  0  0  0  0  0  0  0  0  0
    0.3256   -0.1630    0.1177 H   0  0  0  0  0  0  0  0  0  0  0  0
    1.8859   -3.0938    3.2238 H   0  0  0  0  0  0  0  0  0  0  0  0
    4.4497   -2.2768    2.7863 H   0  0  0  0  0  0  0  0  0  0  0  0
    6.1945   -0.9358    1.7139 H   0  0  0  0  0  0  0  0  0  0  0  0
    7.8701    0.4555    0.5840 H   0  0  0  0  0  0  0  0  0  0  0  0
    4.7714    2.3513   -1.7203 H   0  0  0  0  0  0  0  0  0  0  0  0
    3.0795    0.9676   -0.6001 H   0  0  0  0  0  0  0  0  0  0  0  0
  1  2  1  0
  2  3  1  0
  3  4  2  0
  4  5  1  0
  5  6  2  0
  6  7  1  0
  7  8  2  0
  7  9  1  0
  9 10  1  0
  5 11  1  0
 11 12  1  0
 12 13  2  0
 12 14  1  0
 14 15  2  0
 15 16  1  0
 16 17  2  0
 17 18  1  0
 17 19  1  0
 19 20  2  0
 20 21  1  0
 21 22  2  0
 22 23  1  0
 23 24  2  0
 22 25  1  0
  8  3  1  0
 18 14  1  0
 24 19  1  0
  1 26  1  0
  1 27  1  0
  1 28  1  0
  4 29  1  0
  6 30  1  0
  8 31  1  0
 10 32  1  0
 10 33  1  0
 10 34  1  0
 11 35  1  0
 15 36  1  0
 16 37  1  0
 20 38  1  0
 21 39  1  0
 23 40  1  0
 24 41  1  0
M  END
$$$$
Molecule_1
     RDKit          3D

 31 31  0  0  0  0  0  0  0  0999 V2000
   -5.5503   -1.9519   -0.5444 C   0  0  0  0  0  0  0  0  0  0  0  0
   -4.6220   -0.9084   -0.2784 O   0  0  0  0  0  0  0  0  0  0  0  0
   -3.3075   -1.1638   -0.5609 C   0  0  0  0  0  0  0  0  0  0  0  0
   -2.7979   -2.3476   -1.0863 C   0  0  0  0  0  0  0  0  0  0  0  0
   -1.4313   -2.4580   -1.3424 C   0  0  0  0  0  0  0  0  0  0  0  0
   -0.5692   -1.3928   -1.0624 C   0  0  0  0  0  0  0  0  0  0  0  0
   -1.0481   -0.2087   -0.4953 C   0  0  0  0  0  0  0  0  0  0  0  0
   -0.2539    0.9216   -0.2545 N   0  0  0  0  0  0  0  0  0  0  0  0
    1.1982    0.7695   -0.1436 C   0  0  0  0  0  0  0  0  0  0  0  0
    1.8516    2.1342    0.1355 C   0  0  0  0  0  0  0  0  0  0  0  0
    3.3029    2.0914    0.1143 N   0  0  0  0  0  0  0  0  0  0  0  0
    4.0208    1.5390    1.1479 C   0  0  0  0  0  0  0  0  0  0  0  0
    5.5119    1.5583    0.9479 C   0  0  0  0  0  0  0  0  0  0  0  0
    3.5011    1.0502    2.1452 O   0  0  0  0  0  0  0  0  0  0  0  0
   -2.4325   -0.1056   -0.2843 C   0  0  0  0  0  0  0  0  0  0  0  0
   -5.3347   -2.8368    0.0635 H   0  0  0  0  0  0  0  0  0  0  0  0
   -6.5458   -1.5924   -0.2668 H   0  0  0  0  0  0  0  0  0  0  0  0
   -5.5715   -2.1994   -1.6109 H   0  0  0  0  0  0  0  0  0  0  0  0
   -3.4332   -3.1950   -1.3183 H   0  0  0  0  0  0  0  0  0  0  0  0
   -1.0326   -3.3748   -1.7692 H   0  0  0  0  0  0  0  0  0  0  0  0
    0.4829   -1.5187   -1.2963 H   0  0  0  0  0  0  0  0  0  0  0  0
   -0.6462    1.4672    0.5119 H   0  0  0  0  0  0  0  0  0  0  0  0
    1.4458    0.0628    0.6571 H   0  0  0  0  0  0  0  0  0  0  0  0
    1.6121    0.3812   -1.0818 H   0  0  0  0  0  0  0  0  0  0  0  0
    1.5282    2.5103    1.1133 H   0  0  0  0  0  0  0  0  0  0  0  0
    1.5429    2.8656   -0.6197 H   0  0  0  0  0  0  0  0  0  0  0  0
    3.7812    2.3975   -0.7230 H   0  0  0  0  0  0  0  0  0  0  0  0
    5.8543    0.5475    0.7118 H   0  0  0  0  0  0  0  0  0  0  0  0
    5.8018    2.2317    0.1365 H   0  0  0  0  0  0  0  0  0  0  0  0
    5.9912    1.9058    1.8673 H   0  0  0  0  0  0  0  0  0  0  0  0
   -2.8504    0.8201    0.1045 H   0  0  0  0  0  0  0  0  0  0  0  0
  1  2  1  0
  2  3  1  0
  3  4  2  0
  4  5  1  0
  5  6  2  0
  6  7  1  0
  7  8  1  0
  8  9  1  0
  9 10  1  0
 10 11  1  0
 11 12  1  0
 12 13  1  0
 12 14  2  0
  7 15  2  0
 15  3  1  0
  1 16  1  0
  1 17  1  0
  1 18  1  0
  4 19  1  0
  5 20  1  0
  6 21  1  0
  8 22  1  0
  9 23  1  0
  9 24  1  0
 10 25  1  0
 10 26  1  0
 11 27  1  0
 13 28  1  0
 13 29  1  0
 13 30  1  0
 15 31  1  0
M  END
$$$$
Molecule_2
     RDKit          3D

 30 30  0  0  0  0  0  0  0  0999 V2000
   -1.1450    4.9660   -1.0342 C   0  0  0  0  0  0  0  0  0  0  0  0
   -1.4088    3.7590   -0.3303 O   0  0  0  0  0  0  0  0  0  0  0  0
   -0.9818    2.5973   -0.9122 C   0  0  0  0  0  0  0  0  0  0  0  0
   -0.3040    2.4879   -2.1244 C   0  0  0  0  0  0  0  0  0  0  0  0
    0.0748    1.2300   -2.5995 C   0  0  0  0  0  0  0  0  0  0  0  0
   -0.2206    0.0758   -1.8685 C   0  0  0  0  0  0  0  0  0  0  0  0
   -0.8983    0.1742   -0.6555 C   0  0  0  0  0  0  0  0  0  0  0  0
   -1.2473   -0.8589    0.1676 O   0  0  0  0  0  0  0  0  0  0  0  0
   -0.9430   -2.1995   -0.2313 C   0  0  0  0  0  0  0  0  0  0  0  0
    0.4794   -2.5866    0.1737 C   0  0  0  0  0  0  0  0  0  0  0  0
    0.6831   -2.4590    1.6069 N   0  0  0  0  0  0  0  0  0  0  0  0
    1.7692   -3.0436    2.2156 C   0  0  0  0  0  0  0  0  0  0  0  0
    1.9366   -2.6723    3.6643 C   0  0  0  0  0  0  0  0  0  0  0  0
    2.5465   -3.7983    1.6404 O   0  0  0  0  0  0  0  0  0  0  0  0
   -1.2730    1.4377   -0.1875 C   0  0  0  0  0  0  0  0  0  0  0  0
   -1.6479    4.9740   -2.0068 H   0  0  0  0  0  0  0  0  0  0  0  0
   -0.0681    5.1316   -1.1437 H   0  0  0  0  0  0  0  0  0  0  0  0
   -1.5503    5.7930   -0.4432 H   0  0  0  0  0  0  0  0  0  0  0  0
   -0.0543    3.3573   -2.7229 H   0  0  0  0  0  0  0  0  0  0  0  0
    0.6052    1.1485   -3.5455 H   0  0  0  0  0  0  0  0  0  0  0  0
    0.0990   -0.8756   -2.2784 H   0  0  0  0  0  0  0  0  0  0  0  0
   -1.6510   -2.8436    0.3038 H   0  0  0  0  0  0  0  0  0  0  0  0
   -1.1308   -2.3650   -1.2978 H   0  0  0  0  0  0  0  0  0  0  0  0
    0.6880   -3.6191   -0.1264 H   0  0  0  0  0  0  0  0  0  0  0  0
    1.2204   -1.9381   -0.3045 H   0  0  0  0  0  0  0  0  0  0  0  0
    0.2788   -1.6382    2.0442 H   0  0  0  0  0  0  0  0  0  0  0  0
    2.7768   -1.9799    3.7615 H   0  0  0  0  0  0  0  0  0  0  0  0
    2.1342   -3.5776    4.2450 H   0  0  0  0  0  0  0  0  0  0  0  0
    1.0359   -2.1990    4.0652 H   0  0  0  0  0  0  0  0  0  0  0  0
   -1.8037    1.5222    0.7580 H   0  0  0  0  0  0  0  0  0  0  0  0
  1  2  1  0
  2  3  1  0
  3  4  2  0
  4  5  1  0
  5  6  2  0
  6  7  1  0
  7  8  1  0
  8  9  1  0
  9 10  1  0
 10 11  1  0
 11 12  1  0
 12 13  1  0
 12 14  2  0
  7 15  2  0
 15  3  1  0
  1 16  1  0
  1 17  1  0
  1 18  1  0
  4 19  1  0
  5 20  1  0
  6 21  1  0
  9 22  1  0
  9 23  1  0
 10 24  1  0
 10 25  1  0
 11 26  1  0
 13 27  1  0
 13 28  1  0
 13 29  1  0
 15 30  1  0
M  END
$$$$
Molecule_3
     RDKit          3D

 57 61  0  0  0  0  0  0  0  0999 V2000
   -2.3158    2.3463    1.0157 O   0  0  0  0  0  0  0  0  0  0  0  0
   -2.1131    1.1867    0.6888 C   0  0  0  0  0  0  0  0  0  0  0  0
   -3.0916    0.2924    0.3377 N   0  0  0  0  0  0  0  0  0  0  0  0
   -4.4675    0.7437    0.2627 C   0  0  0  0  0  0  0  0  0  0  0  0
   -5.4760   -0.3883    0.2873 C   0  0  0  0  0  0  0  0  0  0  0  0
   -5.1558   -1.5827    0.9633 C   0  0  0  0  0  0  0  0  0  0  0  0
   -6.0724   -2.6284    1.0510 C   0  0  0  0  0  0  0  0  0  0  0  0
   -7.3363   -2.4931    0.4844 C   0  0  0  0  0  0  0  0  0  0  0  0
   -7.7044   -1.3120   -0.1731 C   0  0  0  0  0  0  0  0  0  0  0  0
   -8.9979   -1.1961   -0.7187 C   0  0  0  0  0  0  0  0  0  0  0  0
   -9.4006   -0.0281   -1.3596 C   0  0  0  0  0  0  0  0  0  0  0  0
   -8.5166    1.0403   -1.4643 C   0  0  0  0  0  0  0  0  0  0  0  0
   -7.2284    0.9387   -0.9301 C   0  0  0  0  0  0  0  0  0  0  0  0
   -6.7801   -0.2351   -0.2764 C   0  0  0  0  0  0  0  0  0  0  0  0
   -0.8730    0.5955    0.6412 N   0  0  0  0  0  0  0  0  0  0  0  0
    0.2658    1.3089    1.1850 C   0  0  0  0  0  0  0  0  0  0  0  0
    1.5861    0.6095    0.8538 C   0  0  0  0  0  0  0  0  0  0  0  0
    2.7126    1.1276    1.7535 C   0  0  0  0  0  0  0  0  0  0  0  0
    4.0302    0.4177    1.4394 C   0  0  0  0  0  0  0  0  0  0  0  0
    4.2806    0.3530    0.0043 N   0  0  0  0  0  0  0  0  0  0  0  0
    5.5365    0.0735   -0.4168 C   0  0  0  0  0  0  0  0  0  0  0  0
    6.1008    0.3583   -1.5707 N   0  0  0  0  0  0  0  0  0  0  0  0
    7.3603   -0.1695   -1.4676 C   0  0  0  0  0  0  0  0  0  0  0  0
    8.4362   -0.1795   -2.3657 C   0  0  0  0  0  0  0  0  0  0  0  0
    9.6212   -0.8202   -1.9684 C   0  0  0  0  0  0  0  0  0  0  0  0
    9.7262   -1.4406   -0.7178 C   0  0  0  0  0  0  0  0  0  0  0  0
    8.6626   -1.4281    0.1923 C   0  0  0  0  0  0  0  0  0  0  0  0
    7.5133   -0.7755   -0.2351 C   0  0  0  0  0  0  0  0  0  0  0  0
    6.3499   -0.6149    0.4527 O   0  0  0  0  0  0  0  0  0  0  0  0
    3.4219    1.1237   -0.8821 C   0  0  0  0  0  0  0  0  0  0  0  0
    1.9542    0.7533   -0.6391 C   0  0  0  0  0  0  0  0  0  0  0  0
   -2.8073   -0.3485   -0.3932 H   0  0  0  0  0  0  0  0  0  0  0  0
   -4.5340    1.3108   -0.6711 H   0  0  0  0  0  0  0  0  0  0  0  0
   -4.6747    1.4239    1.0963 H   0  0  0  0  0  0  0  0  0  0  0  0
   -4.1849   -1.7020    1.4402 H   0  0  0  0  0  0  0  0  0  0  0  0
   -5.8080   -3.5431    1.5717 H   0  0  0  0  0  0  0  0  0  0  0  0
   -8.0421   -3.3184    0.5750 H   0  0  0  0  0  0  0  0  0  0  0  0
   -9.7052   -2.0184   -0.6361 H   0  0  0  0  0  0  0  0  0  0  0  0
  -10.4027    0.0477   -1.7703 H   0  0  0  0  0  0  0  0  0  0  0  0
   -8.8253    1.9578   -1.9562 H   0  0  0  0  0  0  0  0  0  0  0  0
   -6.5808    1.8065   -1.0347 H   0  0  0  0  0  0  0  0  0  0  0  0
   -0.9095   -0.3923    0.8461 H   0  0  0  0  0  0  0  0  0  0  0  0
    0.2577    2.3385    0.8088 H   0  0  0  0  0  0  0  0  0  0  0  0
    0.1167    1.3583    2.2716 H   0  0  0  0  0  0  0  0  0  0  0  0
    1.4677   -0.4631    1.0668 H   0  0  0  0  0  0  0  0  0  0  0  0
    2.8318    2.2110    1.6189 H   0  0  0  0  0  0  0  0  0  0  0  0
    2.4609    0.9692    2.8083 H   0  0  0  0  0  0  0  0  0  0  0  0
    4.8398    0.9478    1.9602 H   0  0  0  0  0  0  0  0  0  0  0  0
    3.9896   -0.6039    1.8389 H   0  0  0  0  0  0  0  0  0  0  0  0
    8.3491    0.2940   -3.3349 H   0  0  0  0  0  0  0  0  0  0  0  0
   10.4681   -0.8403   -2.6531 H   0  0  0  0  0  0  0  0  0  0  0  0
   10.6526   -1.9428   -0.4460 H   0  0  0  0  0  0  0  0  0  0  0  0
    8.7242   -1.8981    1.1641 H   0  0  0  0  0  0  0  0  0  0  0  0
    3.6447    0.9335   -1.9410 H   0  0  0  0  0  0  0  0  0  0  0  0
    3.5784    2.1974   -0.7096 H   0  0  0  0  0  0  0  0  0  0  0  0
    1.7405   -0.2023   -1.1387 H   0  0  0  0  0  0  0  0  0  0  0  0
    1.3240    1.5001   -1.1368 H   0  0  0  0  0  0  0  0  0  0  0  0
  1  2  2  0
  2  3  1  0
  3  4  1  0
  4  5  1  0
  5  6  2  0
  6  7  1  0
  7  8  2  0
  8  9  1  0
  9 10  2  0
 10 11  1  0
 11 12  2  0
 12 13  1  0
 13 14  2  0
  2 15  1  0
 15 16  1  0
 16 17  1  0
 17 18  1  0
 18 19  1  0
 19 20  1  0
 20 21  1  0
 21 22  2  0
 22 23  1  0
 23 24  2  0
 24 25  1  0
 25 26  2  0
 26 27  1  0
 27 28  2  0
 28 29  1  0
 20 30  1  0
 30 31  1  0
 14  5  1  0
 31 17  1  0
 14  9  1  0
 29 21  1  0
 28 23  1  0
  3 32  1  0
  4 33  1  0
  4 34  1  0
  6 35  1  0
  7 36  1  0
  8 37  1  0
 10 38  1  0
 11 39  1  0
 12 40  1  0
 13 41  1  0
 15 42  1  0
 16 43  1  0
 16 44  1  0
 17 45  1  0
 18 46  1  0
 18 47  1  0
 19 48  1  0
 19 49  1  0
 24 50  1  0
 25 51  1  0
 26 52  1  0
 27 53  1  0
 30 54  1  0
 30 55  1  0
 31 56  1  0
 31 57  1  0
M  END
$$$$
Molecule_4
     RDKit          3D

 66 69  0  0  0  0  0  0  0  0999 V2000
    6.9678    0.6292    0.0094 C   0  0  0  0  0  0  0  0  0  0  0  0
    5.7168    1.0240   -0.7878 C   0  0  0  0  0  0  0  0  0  0  0  0
    6.1489    1.4862   -2.1910 C   0  0  0  0  0  0  0  0  0  0  0  0
    4.9912    2.1883   -0.0934 C   0  0  0  0  0  0  0  0  0  0  0  0
    4.7643   -0.1812   -0.9147 C   0  0  0  0  0  0  0  0  0  0  0  0
    4.4340   -0.6552   -1.9989 O   0  0  0  0  0  0  0  0  0  0  0  0
    4.2942   -0.6808    0.2817 N   0  0  0  0  0  0  0  0  0  0  0  0
    3.3135   -1.7481    0.3530 C   0  0  0  0  0  0  0  0  0  0  0  0
    1.8960   -1.2084    0.6104 C   0  0  1  0  0  0  0  0  0  0  0  0
    1.3470   -0.4353   -0.5999 C   0  0  0  0  0  0  0  0  0  0  0  0
   -0.0815    0.0510   -0.3614 C   0  0  0  0  0  0  0  0  0  0  0  0
   -1.0241   -1.1081    0.0092 C   0  0  2  0  0  0  0  0  0  0  0  0
   -2.4399   -0.6193    0.2755 C   0  0  0  0  0  0  0  0  0  0  0  0
   -2.5415    0.5168    1.0124 N   0  0  0  0  0  0  0  0  0  0  0  0
   -3.7566    1.0163    1.2918 C   0  0  0  0  0  0  0  0  0  0  0  0
   -3.8426    2.1662    2.0334 N   0  0  0  0  0  0  0  0  0  0  0  0
   -2.6885    3.0445    2.1500 C   0  0  0  0  0  0  0  0  0  0  0  0
   -3.2973    4.4447    2.2608 C   0  0  0  0  0  0  0  0  0  0  0  0
   -4.7020    4.1909    2.7882 C   0  0  0  0  0  0  0  0  0  0  0  0
   -5.0955    2.8963    2.0822 C   0  0  0  0  0  0  0  0  0  0  0  0
   -4.8863    0.4221    0.8885 N   0  0  0  0  0  0  0  0  0  0  0  0
   -4.7633   -0.7179    0.1788 C   0  0  0  0  0  0  0  0  0  0  0  0
   -3.5612   -1.3082   -0.1691 C   0  0  0  0  0  0  0  0  0  0  0  0
   -3.5377   -2.5543   -0.9333 C   0  0  0  0  0  0  0  0  0  0  0  0
   -3.6538   -3.7894   -0.2869 C   0  0  0  0  0  0  0  0  0  0  0  0
   -3.6410   -4.9435   -1.0527 C   0  0  0  0  0  0  0  0  0  0  0  0
   -3.5215   -4.9522   -2.3976 N   0  0  0  0  0  0  0  0  0  0  0  0
   -3.4183   -3.7521   -3.0048 C   0  0  0  0  0  0  0  0  0  0  0  0
   -3.4233   -2.5431   -2.3271 C   0  0  0  0  0  0  0  0  0  0  0  0
   -0.4783   -1.8748    1.2220 C   0  0  0  0  0  0  0  0  0  0  0  0
    0.9507   -2.3615    0.9815 C   0  0  0  0  0  0  0  0  0  0  0  0
    7.6775    1.4615    0.0669 H   0  0  0  0  0  0  0  0  0  0  0  0
    6.7266    0.3312    1.0359 H   0  0  0  0  0  0  0  0  0  0  0  0
    7.4793   -0.2185   -0.4614 H   0  0  0  0  0  0  0  0  0  0  0  0
    5.2827    1.8034   -2.7854 H   0  0  0  0  0  0  0  0  0  0  0  0
    6.6486    0.6811   -2.7440 H   0  0  0  0  0  0  0  0  0  0  0  0
    6.8403    2.3338   -2.1354 H   0  0  0  0  0  0  0  0  0  0  0  0
    4.0525    2.4257   -0.6063 H   0  0  0  0  0  0  0  0  0  0  0  0
    5.6093    3.0932   -0.0862 H   0  0  0  0  0  0  0  0  0  0  0  0
    4.7426    1.9541    0.9476 H   0  0  0  0  0  0  0  0  0  0  0  0
    4.5665   -0.2367    1.1479 H   0  0  0  0  0  0  0  0  0  0  0  0
    3.6276   -2.3916    1.1836 H   0  0  0  0  0  0  0  0  0  0  0  0
    3.3416   -2.3480   -0.5642 H   0  0  0  0  0  0  0  0  0  0  0  0
    1.9388   -0.5180    1.4648 H   0  0  0  0  0  0  0  0  0  0  0  0
    1.3693   -1.0721   -1.4937 H   0  0  0  0  0  0  0  0  0  0  0  0
    1.9768    0.4362   -0.8117 H   0  0  0  0  0  0  0  0  0  0  0  0
   -0.0613    0.8062    0.4354 H   0  0  0  0  0  0  0  0  0  0  0  0
   -0.4470    0.5581   -1.2631 H   0  0  0  0  0  0  0  0  0  0  0  0
   -1.0276   -1.7880   -0.8510 H   0  0  0  0  0  0  0  0  0  0  0  0
   -2.0112    3.0065    1.2887 H   0  0  0  0  0  0  0  0  0  0  0  0
   -2.1255    2.7950    3.0566 H   0  0  0  0  0  0  0  0  0  0  0  0
   -2.7130    5.1023    2.9095 H   0  0  0  0  0  0  0  0  0  0  0  0
   -3.3491    4.9071    1.2683 H   0  0  0  0  0  0  0  0  0  0  0  0
   -5.3916    5.0121    2.5744 H   0  0  0  0  0  0  0  0  0  0  0  0
   -4.6720    4.0368    3.8740 H   0  0  0  0  0  0  0  0  0  0  0  0
   -5.8704    2.3604    2.6422 H   0  0  0  0  0  0  0  0  0  0  0  0
   -5.4657    3.1165    1.0724 H   0  0  0  0  0  0  0  0  0  0  0  0
   -5.7104   -1.1626   -0.1175 H   0  0  0  0  0  0  0  0  0  0  0  0
   -3.7509   -3.8576    0.7918 H   0  0  0  0  0  0  0  0  0  0  0  0
   -3.7293   -5.9227   -0.5883 H   0  0  0  0  0  0  0  0  0  0  0  0
   -3.3319   -3.7856   -4.0870 H   0  0  0  0  0  0  0  0  0  0  0  0
   -3.3407   -1.6121   -2.8784 H   0  0  0  0  0  0  0  0  0  0  0  0
   -0.4959   -1.2355    2.1149 H   0  0  0  0  0  0  0  0  0  0  0  0
   -1.1170   -2.7379    1.4455 H   0  0  0  0  0  0  0  0  0  0  0  0
    0.9465   -3.1123    0.1807 H   0  0  0  0  0  0  0  0  0  0  0  0
    1.3139   -2.8652    1.8857 H   0  0  0  0  0  0  0  0  0  0  0  0
  1  2  1  0
  2  3  1  0
  2  4  1  0
  2  5  1  0
  5  6  2  0
  5  7  1  0
  7  8  1  0
  8  9  1  0
  9 10  1  0
 10 11  1  0
 11 12  1  0
 12 13  1  0
 13 14  2  0
 14 15  1  0
 15 16  1  0
 16 17  1  0
 17 18  1  0
 18 19  1  0
 19 20  1  0
 15 21  2  0
 21 22  1  0
 22 23  2  0
 23 24  1  0
 24 25  2  0
 25 26  1  0
 26 27  2  0
 27 28  1  0
 28 29  2  0
 12 30  1  0
 30 31  1  0
 31  9  1  0
 23 13  1  0
 29 24  1  0
 20 16  1  0
  1 32  1  0
  1 33  1  0
  1 34  1  0
  3 35  1  0
  3 36  1  0
  3 37  1  0
  4 38  1  0
  4 39  1  0
  4 40  1  0
  7 41  1  0
  8 42  1  0
  8 43  1  0
  9 44  1  1
 10 45  1  0
 10 46  1  0
 11 47  1  0
 11 48  1  0
 12 49  1  6
 17 50  1  0
 17 51  1  0
 18 52  1  0
 18 53  1  0
 19 54  1  0
 19 55  1  0
 20 56  1  0
 20 57  1  0
 22 58  1  0
 25 59  1  0
 26 60  1  0
 28 61  1  0
 29 62  1  0
 30 63  1  0
 30 64  1  0
 31 65  1  0
 31 66  1  0
M  END
$$$$
Molecule_5
     RDKit          3D

 56 58  0  0  0  0  0  0  0  0999 V2000
    6.7137    2.8489    1.1605 C   0  0  0  0  0  0  0  0  0  0  0  0
    5.5531    2.0757    1.4414 O   0  0  0  0  0  0  0  0  0  0  0  0
    5.0228    1.3561    0.4086 C   0  0  0  0  0  0  0  0  0  0  0  0
    5.5026    1.3206   -0.9010 C   0  0  0  0  0  0  0  0  0  0  0  0
    4.8586    0.5350   -1.8617 C   0  0  0  0  0  0  0  0  0  0  0  0
    3.7287   -0.2291   -1.5347 C   0  0  0  0  0  0  0  0  0  0  0  0
    3.0838   -1.0361   -2.5621 C   0  0  0  0  0  0  0  0  0  0  0  0
    3.4286   -1.2429   -3.8188 N   0  0  0  0  0  0  0  0  0  0  0  0
    2.4596   -2.0658   -4.3592 N   0  0  0  0  0  0  0  0  0  0  0  0
    1.5869   -2.3020   -3.3990 C   0  0  0  0  0  0  0  0  0  0  0  0
    0.1702   -3.2894   -3.6061 S   0  0  0  0  0  0  0  0  0  0  0  0
   -0.5805   -3.1624   -1.9622 C   0  0  0  0  0  0  0  0  0  0  0  0
   -1.0339   -1.7594   -1.6183 C   0  0  0  0  0  0  0  0  0  0  0  0
   -0.9970   -0.7801   -2.3473 O   0  0  0  0  0  0  0  0  0  0  0  0
   -1.4944   -1.7514   -0.3310 O   0  0  0  0  0  0  0  0  0  0  0  0
   -1.9349   -0.4775    0.1823 C   0  0  2  0  0  0  0  0  0  0  0  0
   -0.7559    0.1804    0.9029 C   0  0  0  0  0  0  0  0  0  0  0  0
   -1.1338    1.4788    1.6273 C   0  0  1  0  0  0  0  0  0  0  0  0
   -0.2993    2.6535    1.1072 C   0  0  0  0  0  0  0  0  0  0  0  0
   -2.6284    1.7964    1.5308 C   0  0  0  0  0  0  0  0  0  0  0  0
   -3.5017    0.5967    1.8903 C   0  0  0  0  0  0  0  0  0  0  0  0
   -3.1051   -0.7077    1.1637 C   0  0  1  0  0  0  0  0  0  0  0  0
   -4.3025   -1.4528    0.5040 C   0  0  0  0  0  0  0  0  0  0  0  0
   -4.9674   -0.6721   -0.6319 C   0  0  0  0  0  0  0  0  0  0  0  0
   -5.3535   -1.8646    1.5418 C   0  0  0  0  0  0  0  0  0  0  0  0
    1.9378   -1.7026   -2.2187 O   0  0  0  0  0  0  0  0  0  0  0  0
    3.2567   -0.1868   -0.2178 C   0  0  0  0  0  0  0  0  0  0  0  0
    3.8984    0.5997    0.7407 C   0  0  0  0  0  0  0  0  0  0  0  0
    6.4983    3.6275    0.4195 H   0  0  0  0  0  0  0  0  0  0  0  0
    7.0169    3.3456    2.0869 H   0  0  0  0  0  0  0  0  0  0  0  0
    7.5408    2.2169    0.8351 H   0  0  0  0  0  0  0  0  0  0  0  0
    6.3706    1.8919   -1.2084 H   0  0  0  0  0  0  0  0  0  0  0  0
    5.2494    0.5247   -2.8764 H   0  0  0  0  0  0  0  0  0  0  0  0
   -1.4564   -3.8160   -1.9421 H   0  0  0  0  0  0  0  0  0  0  0  0
    0.1383   -3.5067   -1.2116 H   0  0  0  0  0  0  0  0  0  0  0  0
   -2.2685    0.1728   -0.6353 H   0  0  0  0  0  0  0  0  0  0  0  0
   -0.3435   -0.5236    1.6397 H   0  0  0  0  0  0  0  0  0  0  0  0
    0.0610    0.3422    0.1853 H   0  0  0  0  0  0  0  0  0  0  0  0
   -0.8884    1.3541    2.6894 H   0  0  0  0  0  0  0  0  0  0  0  0
   -0.5479    3.5770    1.6413 H   0  0  0  0  0  0  0  0  0  0  0  0
   -0.4735    2.8180    0.0392 H   0  0  0  0  0  0  0  0  0  0  0  0
    0.7693    2.4602    1.2496 H   0  0  0  0  0  0  0  0  0  0  0  0
   -2.8772    2.1325    0.5167 H   0  0  0  0  0  0  0  0  0  0  0  0
   -2.8727    2.6320    2.1977 H   0  0  0  0  0  0  0  0  0  0  0  0
   -3.4343    0.4227    2.9701 H   0  0  0  0  0  0  0  0  0  0  0  0
   -4.5415    0.8705    1.7036 H   0  0  0  0  0  0  0  0  0  0  0  0
   -2.7295   -1.3970    1.9349 H   0  0  0  0  0  0  0  0  0  0  0  0
   -3.9194   -2.3857    0.0696 H   0  0  0  0  0  0  0  0  0  0  0  0
   -5.7706   -1.2665   -1.0803 H   0  0  0  0  0  0  0  0  0  0  0  0
   -5.4065    0.2672   -0.2848 H   0  0  0  0  0  0  0  0  0  0  0  0
   -4.2560   -0.4411   -1.4301 H   0  0  0  0  0  0  0  0  0  0  0  0
   -5.8470   -1.0009    1.9932 H   0  0  0  0  0  0  0  0  0  0  0  0
   -4.8976   -2.4539    2.3415 H   0  0  0  0  0  0  0  0  0  0  0  0
   -6.1281   -2.4838    1.0783 H   0  0  0  0  0  0  0  0  0  0  0  0
    2.3853   -0.7632    0.0829 H   0  0  0  0  0  0  0  0  0  0  0  0
    3.5153    0.6236    1.7587 H   0  0  0  0  0  0  0  0  0  0  0  0
  1  2  1  0
  2  3  1  0
  3  4  2  0
  4  5  1  0
  5  6  2  0
  6  7  1  0
  7  8  2  0
  8  9  1  0
  9 10  2  0
 10 11  1  0
 11 12  1  0
 12 13  1  0
 13 14  2  0
 13 15  1  0
 15 16  1  0
 16 17  1  0
 17 18  1  0
 18 19  1  0
 18 20  1  0
 20 21  1  0
 21 22  1  0
 22 23  1  0
 23 24  1  0
 23 25  1  0
 10 26  1  0
  6 27  1  0
 27 28  2  0
 28  3  1  0
 26  7  1  0
 22 16  1  0
  1 29  1  0
  1 30  1  0
  1 31  1  0
  4 32  1  0
  5 33  1  0
 12 34  1  0
 12 35  1  0
 16 36  1  6
 17 37  1  0
 17 38  1  0
 18 39  1  1
 19 40  1  0
 19 41  1  0
 19 42  1  0
 20 43  1  0
 20 44  1  0
 21 45  1  0
 21 46  1  0
 22 47  1  1
 23 48  1  0
 24 49  1  0
 24 50  1  0
 24 51  1  0
 25 52  1  0
 25 53  1  0
 25 54  1  0
 27 55  1  0
 28 56  1  0
M  END
$$$$
Molecule_6
     RDKit          3D

 46 49  0  0  0  0  0  0  0  0999 V2000
    9.9972    0.4349    1.6781 C   0  0  0  0  0  0  0  0  0  0  0  0
    8.9638   -0.2094    0.8188 C   0  0  0  0  0  0  0  0  0  0  0  0
    9.1301   -1.1988   -0.1262 C   0  0  0  0  0  0  0  0  0  0  0  0
    7.8999   -1.5596   -0.7468 C   0  0  0  0  0  0  0  0  0  0  0  0
    6.8234   -0.8382   -0.2621 C   0  0  0  0  0  0  0  0  0  0  0  0
    5.4270   -0.9656   -0.6871 C   0  0  0  0  0  0  0  0  0  0  0  0
    5.1067   -1.7726   -1.5545 O   0  0  0  0  0  0  0  0  0  0  0  0
    4.5572   -0.1204   -0.0358 N   0  0  0  0  0  0  0  0  0  0  0  0
    3.2043   -0.0022   -0.2094 C   0  0  0  0  0  0  0  0  0  0  0  0
    2.5146    0.8593    0.4987 N   0  0  0  0  0  0  0  0  0  0  0  0
    1.1780    0.7927    0.1439 C   0  0  0  0  0  0  0  0  0  0  0  0
    0.1338    1.5636    0.6853 C   0  0  0  0  0  0  0  0  0  0  0  0
   -1.1801    1.3859    0.2255 C   0  0  0  0  0  0  0  0  0  0  0  0
   -1.4748    0.4526   -0.7667 C   0  0  0  0  0  0  0  0  0  0  0  0
   -2.7735    0.2235   -1.2714 N   0  0  0  0  0  0  0  0  0  0  0  0
   -3.9525    0.8646   -0.9032 C   0  0  0  0  0  0  0  0  0  0  0  0
   -4.0554    1.7584   -0.0707 O   0  0  0  0  0  0  0  0  0  0  0  0
   -5.1632    0.3102   -1.6750 C   0  0  0  0  0  0  0  0  0  0  0  0
   -6.4307    0.8410   -1.3310 O   0  0  0  0  0  0  0  0  0  0  0  0
   -7.1002    0.2591   -0.2907 C   0  0  0  0  0  0  0  0  0  0  0  0
   -6.5396   -0.5557    0.6937 C   0  0  0  0  0  0  0  0  0  0  0  0
   -7.3437   -1.0848    1.7085 C   0  0  0  0  0  0  0  0  0  0  0  0
   -8.7070   -0.7974    1.7475 C   0  0  0  0  0  0  0  0  0  0  0  0
   -9.2684    0.0271    0.7760 C   0  0  0  0  0  0  0  0  0  0  0  0
   -8.4648    0.5559   -0.2354 C   0  0  0  0  0  0  0  0  0  0  0  0
   -0.4419   -0.3241   -1.3159 C   0  0  0  0  0  0  0  0  0  0  0  0
    0.8713   -0.1378   -0.8474 C   0  0  0  0  0  0  0  0  0  0  0  0
    2.3206   -0.9322   -1.3244 S   0  0  0  0  0  0  0  0  0  0  0  0
    7.3280    0.2709    0.9451 S   0  0  0  0  0  0  0  0  0  0  0  0
    9.7757    0.2744    2.7384 H   0  0  0  0  0  0  0  0  0  0  0  0
   10.9892    0.0173    1.4764 H   0  0  0  0  0  0  0  0  0  0  0  0
   10.0427    1.5124    1.4890 H   0  0  0  0  0  0  0  0  0  0  0  0
   10.0880   -1.6462   -0.3648 H   0  0  0  0  0  0  0  0  0  0  0  0
    7.8007   -2.3161   -1.5179 H   0  0  0  0  0  0  0  0  0  0  0  0
    4.9316    0.5047    0.6645 H   0  0  0  0  0  0  0  0  0  0  0  0
    0.3487    2.2951    1.4586 H   0  0  0  0  0  0  0  0  0  0  0  0
   -1.9499    2.0058    0.6761 H   0  0  0  0  0  0  0  0  0  0  0  0
   -2.8461   -0.4832   -1.9935 H   0  0  0  0  0  0  0  0  0  0  0  0
   -5.1659   -0.7868   -1.6333 H   0  0  0  0  0  0  0  0  0  0  0  0
   -4.9995    0.5751   -2.7271 H   0  0  0  0  0  0  0  0  0  0  0  0
   -5.4792   -0.7797    0.7198 H   0  0  0  0  0  0  0  0  0  0  0  0
   -6.9010   -1.7131    2.4774 H   0  0  0  0  0  0  0  0  0  0  0  0
   -9.3279   -1.2060    2.5404 H   0  0  0  0  0  0  0  0  0  0  0  0
  -10.3283    0.2644    0.8068 H   0  0  0  0  0  0  0  0  0  0  0  0
   -8.9055    1.2049   -0.9881 H   0  0  0  0  0  0  0  0  0  0  0  0
   -0.6334   -1.0606   -2.0899 H   0  0  0  0  0  0  0  0  0  0  0  0
  1  2  1  0
  2  3  2  0
  3  4  1  0
  4  5  2  0
  5  6  1  0
  6  7  2  0
  6  8  1  0
  8  9  1  0
  9 10  2  0
 10 11  1  0
 11 12  2  0
 12 13  1  0
 13 14  2  0
 14 15  1  0
 15 16  1  0
 16 17  2  0
 16 18  1  0
 18 19  1  0
 19 20  1  0
 20 21  2  0
 21 22  1  0
 22 23  2  0
 23 24  1  0
 24 25  2  0
 14 26  1  0
 26 27  2  0
 27 28  1  0
  5 29  1  0
 29  2  1  0
 28  9  1  0
 27 11  1  0
 25 20  1  0
  1 30  1  0
  1 31  1  0
  1 32  1  0
  3 33  1  0
  4 34  1  0
  8 35  1  0
 12 36  1  0
 13 37  1  0
 15 38  1  0
 18 39  1  0
 18 40  1  0
 21 41  1  0
 22 42  1  0
 23 43  1  0
 24 44  1  0
 25 45  1  0
 26 46  1  0
M  END
$$$$
Molecule_7
     RDKit          3D

 60 62  0  0  0  0  0  0  0  0999 V2000
    7.6513    1.4113    0.1880 C   0  0  0  0  0  0  0  0  0  0  0  0
    7.1159    1.1395   -1.2122 C   0  0  0  0  0  0  0  0  0  0  0  0
    7.8140   -0.0548   -1.8566 C   0  0  0  0  0  0  0  0  0  0  0  0
    5.5959    0.9542   -1.2073 C   0  0  0  0  0  0  0  0  0  0  0  0
    4.8829    1.7215   -1.8462 O   0  0  0  0  0  0  0  0  0  0  0  0
    5.1629   -0.1089   -0.4455 N   0  0  0  0  0  0  0  0  0  0  0  0
    3.8460   -0.4800   -0.3927 C   0  0  0  0  0  0  0  0  0  0  0  0
    2.8004   -0.0205   -1.0361 N   0  0  0  0  0  0  0  0  0  0  0  0
    1.6549   -0.7366   -0.7239 N   0  0  0  0  0  0  0  0  0  0  0  0
    1.8931   -1.6745    0.1657 C   0  0  0  0  0  0  0  0  0  0  0  0
    0.6479   -2.7642    0.7146 S   0  0  0  0  0  0  0  0  0  0  0  0
   -0.1178   -1.7793    2.0260 C   0  0  0  0  0  0  0  0  0  0  0  0
   -0.5574   -0.3966    1.5717 C   0  0  0  0  0  0  0  0  0  0  0  0
    0.1736    0.5564    1.8634 O   0  0  0  0  0  0  0  0  0  0  0  0
   -1.7737   -0.2324    0.8819 N   0  0  0  0  0  0  0  0  0  0  0  0
   -2.0698    1.1580    0.4400 C   0  0  0  0  0  0  0  0  0  0  0  0
   -3.5313    1.6394    0.5413 C   0  0  0  0  0  0  0  0  0  0  0  0
   -3.8331    2.8538   -0.3458 C   0  0  0  0  0  0  0  0  0  0  0  0
   -2.6158    3.7405   -0.5633 C   0  0  0  0  0  0  0  0  0  0  0  0
   -1.4439    2.9819   -1.2008 C   0  0  0  0  0  0  0  0  0  0  0  0
   -1.4699    1.4716   -0.9350 C   0  0  0  0  0  0  0  0  0  0  0  0
   -2.6519   -1.3747    0.5270 C   0  0  0  0  0  0  0  0  0  0  0  0
   -3.1440   -1.4143   -0.9297 C   0  0  0  0  0  0  0  0  0  0  0  0
   -3.9412   -2.6900   -1.2063 C   0  0  0  0  0  0  0  0  0  0  0  0
   -5.0751   -2.8852   -0.1979 C   0  0  0  0  0  0  0  0  0  0  0  0
   -4.5726   -2.8575    1.2434 C   0  0  0  0  0  0  0  0  0  0  0  0
   -3.7884   -1.5832    1.5460 C   0  0  0  0  0  0  0  0  0  0  0  0
    3.5288   -1.7915    0.6568 S   0  0  0  0  0  0  0  0  0  0  0  0
    7.1021    2.2310    0.6703 H   0  0  0  0  0  0  0  0  0  0  0  0
    7.5655    0.5343    0.8383 H   0  0  0  0  0  0  0  0  0  0  0  0
    8.7078    1.6930    0.1405 H   0  0  0  0  0  0  0  0  0  0  0  0
    7.3259    2.0207   -1.8289 H   0  0  0  0  0  0  0  0  0  0  0  0
    8.8882    0.1303   -1.9623 H   0  0  0  0  0  0  0  0  0  0  0  0
    7.6853   -0.9672   -1.2666 H   0  0  0  0  0  0  0  0  0  0  0  0
    7.4067   -0.2478   -2.8559 H   0  0  0  0  0  0  0  0  0  0  0  0
    5.8064   -0.6543    0.1067 H   0  0  0  0  0  0  0  0  0  0  0  0
    0.6144   -1.6486    2.8298 H   0  0  0  0  0  0  0  0  0  0  0  0
   -0.9569   -2.3215    2.4709 H   0  0  0  0  0  0  0  0  0  0  0  0
   -1.5300    1.8065    1.1435 H   0  0  0  0  0  0  0  0  0  0  0  0
   -3.7389    1.8909    1.5885 H   0  0  0  0  0  0  0  0  0  0  0  0
   -4.2562    0.8731    0.2727 H   0  0  0  0  0  0  0  0  0  0  0  0
   -4.6519    3.4275    0.0945 H   0  0  0  0  0  0  0  0  0  0  0  0
   -4.1991    2.5066   -1.3187 H   0  0  0  0  0  0  0  0  0  0  0  0
   -2.2955    4.1517    0.4010 H   0  0  0  0  0  0  0  0  0  0  0  0
   -2.8770    4.6008   -1.1933 H   0  0  0  0  0  0  0  0  0  0  0  0
   -1.4304    3.1446   -2.2857 H   0  0  0  0  0  0  0  0  0  0  0  0
   -0.5031    3.4019   -0.8139 H   0  0  0  0  0  0  0  0  0  0  0  0
   -2.0593    0.9864   -1.7242 H   0  0  0  0  0  0  0  0  0  0  0  0
   -0.4518    1.0811   -1.0210 H   0  0  0  0  0  0  0  0  0  0  0  0
   -2.0474   -2.2812    0.6121 H   0  0  0  0  0  0  0  0  0  0  0  0
   -2.2815   -1.3778   -1.6039 H   0  0  0  0  0  0  0  0  0  0  0  0
   -3.7752   -0.5546   -1.1757 H   0  0  0  0  0  0  0  0  0  0  0  0
   -3.2659   -3.5534   -1.1709 H   0  0  0  0  0  0  0  0  0  0  0  0
   -4.3526   -2.6523   -2.2233 H   0  0  0  0  0  0  0  0  0  0  0  0
   -5.8297   -2.1016   -0.3377 H   0  0  0  0  0  0  0  0  0  0  0  0
   -5.5718   -3.8445   -0.3930 H   0  0  0  0  0  0  0  0  0  0  0  0
   -3.9312   -3.7288    1.4240 H   0  0  0  0  0  0  0  0  0  0  0  0
   -5.4214   -2.9424    1.9322 H   0  0  0  0  0  0  0  0  0  0  0  0
   -4.4871   -0.7455    1.5574 H   0  0  0  0  0  0  0  0  0  0  0  0
   -3.3703   -1.6424    2.5579 H   0  0  0  0  0  0  0  0  0  0  0  0
  1  2  1  0
  2  3  1  0
  2  4  1  0
  4  5  2  0
  4  6  1  0
  6  7  1  0
  7  8  2  0
  8  9  1  0
  9 10  2  0
 10 11  1  0
 11 12  1  0
 12 13  1  0
 13 14  2  0
 13 15  1  0
 15 16  1  0
 16 17  1  0
 17 18  1  0
 18 19  1  0
 19 20  1  0
 20 21  1  0
 15 22  1  0
 22 23  1  0
 23 24  1  0
 24 25  1  0
 25 26  1  0
 26 27  1  0
 10 28  1  0
 28  7  1  0
 21 16  1  0
 27 22  1  0
  1 29  1  0
  1 30  1  0
  1 31  1  0
  2 32  1  0
  3 33  1  0
  3 34  1  0
  3 35  1  0
  6 36  1  0
 12 37  1  0
 12 38  1  0
 16 39  1  0
 17 40  1  0
 17 41  1  0
 18 42  1  0
 18 43  1  0
 19 44  1  0
 19 45  1  0
 20 46  1  0
 20 47  1  0
 21 48  1  0
 21 49  1  0
 22 50  1  0
 23 51  1  0
 23 52  1  0
 24 53  1  0
 24 54  1  0
 25 55  1  0
 25 56  1  0
 26 57  1  0
 26 58  1  0
 27 59  1  0
 27 60  1  0
M  END
$$$$
Molecule_8
     RDKit          3D

 55 58  0  0  0  0  0  0  0  0999 V2000
   -4.3681   -2.0151    1.8952 C   0  0  0  0  0  0  0  0  0  0  0  0
   -4.0971   -2.4596    0.4834 C   0  0  0  0  0  0  0  0  0  0  0  0
   -4.8630   -3.5161   -0.0413 C   0  0  0  0  0  0  0  0  0  0  0  0
   -4.6535   -3.9757   -1.3399 C   0  0  0  0  0  0  0  0  0  0  0  0
   -3.6731   -3.3882   -2.1297 C   0  0  0  0  0  0  0  0  0  0  0  0
   -2.9050   -2.3372   -1.6247 C   0  0  0  0  0  0  0  0  0  0  0  0
   -3.1132   -1.8533   -0.3270 C   0  0  0  0  0  0  0  0  0  0  0  0
   -2.3187   -0.8124    0.2115 N   0  0  0  0  0  0  0  0  0  0  0  0
   -1.5641    0.0956   -0.4984 C   0  0  0  0  0  0  0  0  0  0  0  0
   -1.6803    0.3043   -1.7020 O   0  0  0  0  0  0  0  0  0  0  0  0
   -0.6140    0.7686    0.2700 N   0  0  0  0  0  0  0  0  0  0  0  0
    0.2250    1.7607   -0.4158 C   0  0  0  0  0  0  0  0  0  0  0  0
   -0.4905    3.1087   -0.5500 C   0  0  0  0  0  0  0  0  0  0  0  0
    0.3743    4.1328   -1.2402 C   0  0  0  0  0  0  0  0  0  0  0  0
    1.1892    4.9975   -0.4978 C   0  0  0  0  0  0  0  0  0  0  0  0
    2.0029    5.9291   -1.1445 C   0  0  0  0  0  0  0  0  0  0  0  0
    2.0124    6.0017   -2.5364 C   0  0  0  0  0  0  0  0  0  0  0  0
    1.2097    5.1418   -3.2836 C   0  0  0  0  0  0  0  0  0  0  0  0
    0.3954    4.2096   -2.6394 C   0  0  0  0  0  0  0  0  0  0  0  0
   -0.1811    0.3693    1.6136 C   0  0  0  0  0  0  0  0  0  0  0  0
    0.9901   -0.6017    1.5205 C   0  0  0  0  0  0  0  0  0  0  0  0
    2.1465   -0.2830    2.0077 N   0  0  0  0  0  0  0  0  0  0  0  0
    3.1873   -1.2210    1.8943 C   0  0  0  0  0  0  0  0  0  0  0  0
    4.4446   -0.8991    2.4091 C   0  0  0  0  0  0  0  0  0  0  0  0
    5.5057   -1.8053    2.3149 C   0  0  0  0  0  0  0  0  0  0  0  0
    5.3179   -3.0454    1.7028 C   0  0  0  0  0  0  0  0  0  0  0  0
    4.0686   -3.3816    1.1836 C   0  0  0  0  0  0  0  0  0  0  0  0
    3.0155   -2.4670    1.2845 C   0  0  0  0  0  0  0  0  0  0  0  0
    1.6811   -2.7810    0.7475 C   0  0  0  0  0  0  0  0  0  0  0  0
    1.4364   -3.8428    0.1885 O   0  0  0  0  0  0  0  0  0  0  0  0
    0.7324   -1.8063    0.9178 N   0  0  0  0  0  0  0  0  0  0  0  0
   -4.6990   -0.9716    1.9073 H   0  0  0  0  0  0  0  0  0  0  0  0
   -5.1552   -2.6147    2.3649 H   0  0  0  0  0  0  0  0  0  0  0  0
   -3.4667   -2.1226    2.5072 H   0  0  0  0  0  0  0  0  0  0  0  0
   -5.6318   -3.9934    0.5632 H   0  0  0  0  0  0  0  0  0  0  0  0
   -5.2510   -4.7941   -1.7327 H   0  0  0  0  0  0  0  0  0  0  0  0
   -3.4983   -3.7466   -3.1410 H   0  0  0  0  0  0  0  0  0  0  0  0
   -2.1381   -1.9174   -2.2703 H   0  0  0  0  0  0  0  0  0  0  0  0
   -2.5872   -0.4931    1.1282 H   0  0  0  0  0  0  0  0  0  0  0  0
    1.1641    1.8846    0.1370 H   0  0  0  0  0  0  0  0  0  0  0  0
    0.4969    1.3721   -1.4052 H   0  0  0  0  0  0  0  0  0  0  0  0
   -0.7792    3.4782    0.4426 H   0  0  0  0  0  0  0  0  0  0  0  0
   -1.4312    2.9953   -1.1034 H   0  0  0  0  0  0  0  0  0  0  0  0
    1.1961    4.9514    0.5887 H   0  0  0  0  0  0  0  0  0  0  0  0
    2.6308    6.5983   -0.5622 H   0  0  0  0  0  0  0  0  0  0  0  0
    2.6464    6.7271   -3.0392 H   0  0  0  0  0  0  0  0  0  0  0  0
    1.2180    5.1952   -4.3691 H   0  0  0  0  0  0  0  0  0  0  0  0
   -0.2236    3.5405   -3.2348 H   0  0  0  0  0  0  0  0  0  0  0  0
    0.1124    1.2671    2.1685 H   0  0  0  0  0  0  0  0  0  0  0  0
   -0.9817   -0.1187    2.1735 H   0  0  0  0  0  0  0  0  0  0  0  0
    4.5977    0.0661    2.8851 H   0  0  0  0  0  0  0  0  0  0  0  0
    6.4800   -1.5405    2.7190 H   0  0  0  0  0  0  0  0  0  0  0  0
    6.1447   -3.7478    1.6291 H   0  0  0  0  0  0  0  0  0  0  0  0
    3.9159   -4.3453    0.7034 H   0  0  0  0  0  0  0  0  0  0  0  0
   -0.1733   -1.9979    0.5067 H   0  0  0  0  0  0  0  0  0  0  0  0
  1  2  1  0
  2  3  2  0
  3  4  1  0
  4  5  2  0
  5  6  1  0
  6  7  2  0
  7  8  1  0
  8  9  1  0
  9 10  2  0
  9 11  1  0
 11 12  1  0
 12 13  1  0
 13 14  1  0
 14 15  2  0
 15 16  1  0
 16 17  2  0
 17 18  1  0
 18 19  2  0
 11 20  1  0
 20 21  1  0
 21 22  2  0
 22 23  1  0
 23 24  2  0
 24 25  1  0
 25 26  2  0
 26 27  1  0
 27 28  2  0
 28 29  1  0
 29 30  2  0
 29 31  1  0
  7  2  1  0
 19 14  1  0
 31 21  1  0
 28 23  1  0
  1 32  1  0
  1 33  1  0
  1 34  1  0
  3 35  1  0
  4 36  1  0
  5 37  1  0
  6 38  1  0
  8 39  1  0
 12 40  1  0
 12 41  1  0
 13 42  1  0
 13 43  1  0
 15 44  1  0
 16 45  1  0
 17 46  1  0
 18 47  1  0
 19 48  1  0
 20 49  1  0
 20 50  1  0
 24 51  1  0
 25 52  1  0
 26 53  1  0
 27 54  1  0
 31 55  1  0
M  END
$$$$
Molecule_9
     RDKit          3D

 62 65  0  0  0  0  0  0  0  0999 V2000
    9.1972   -0.7073    0.3210 C   0  0  0  0  0  0  0  0  0  0  0  0
    8.1232   -0.2179    1.1145 O   0  0  0  0  0  0  0  0  0  0  0  0
    6.8590   -0.4195    0.6345 C   0  0  0  0  0  0  0  0  0  0  0  0
    6.5249   -1.0517   -0.5618 C   0  0  0  0  0  0  0  0  0  0  0  0
    5.1811   -1.1913   -0.9326 C   0  0  0  0  0  0  0  0  0  0  0  0
    4.1540   -0.6929   -0.1213 C   0  0  0  0  0  0  0  0  0  0  0  0
    2.7611   -0.8920   -0.5423 C   0  0  0  0  0  0  0  0  0  0  0  0
    1.7669   -0.0215   -0.3032 C   0  0  0  0  0  0  0  0  0  0  0  0
    0.3991   -0.3231   -0.8150 C   0  0  0  0  0  0  0  0  0  0  0  0
    0.2752   -1.0802   -1.7766 O   0  0  0  0  0  0  0  0  0  0  0  0
   -0.6844    0.2844   -0.1644 N   0  0  0  0  0  0  0  0  0  0  0  0
   -0.4914    1.3569    0.8017 C   0  0  0  0  0  0  0  0  0  0  0  0
   -1.7338    1.8164    1.5207 C   0  0  0  0  0  0  0  0  0  0  0  0
   -2.8626    2.1539    0.5617 C   0  0  1  0  0  0  0  0  0  0  0  0
   -3.9918    2.4888    1.3931 O   0  0  0  0  0  0  0  0  0  0  0  0
   -2.5766    3.3985   -0.2918 C   0  0  0  0  0  0  0  0  0  0  0  0
   -3.8043    3.8422   -1.1001 C   0  0  0  0  0  0  0  0  0  0  0  0
   -4.7507    2.6939   -1.4523 C   0  0  0  0  0  0  0  0  0  0  0  0
   -3.9965    1.3814   -1.6131 C   0  0  0  0  0  0  0  0  0  0  0  0
   -3.2207    0.9499   -0.3315 C   0  0  1  0  0  0  0  0  0  0  0  0
   -2.0215    0.0273   -0.7441 C   0  0  2  0  0  0  0  0  0  0  0  0
   -2.4533   -1.4392   -0.5912 C   0  0  0  0  0  0  0  0  0  0  0  0
   -2.7952   -2.1684   -1.7472 C   0  0  0  0  0  0  0  0  0  0  0  0
   -3.2313   -3.4922   -1.6647 C   0  0  0  0  0  0  0  0  0  0  0  0
   -3.3463   -4.1101   -0.4239 C   0  0  0  0  0  0  0  0  0  0  0  0
   -3.0122   -3.4083    0.7327 C   0  0  0  0  0  0  0  0  0  0  0  0
   -2.5487   -2.0896    0.6490 C   0  0  0  0  0  0  0  0  0  0  0  0
   -2.2530   -1.3976    1.7942 O   0  0  0  0  0  0  0  0  0  0  0  0
   -1.1660   -2.0012    2.4977 C   0  0  0  0  0  0  0  0  0  0  0  0
    4.4963   -0.0738    1.0856 C   0  0  0  0  0  0  0  0  0  0  0  0
    5.8383    0.0656    1.4543 C   0  0  0  0  0  0  0  0  0  0  0  0
   10.1310   -0.4689    0.8392 H   0  0  0  0  0  0  0  0  0  0  0  0
    9.2238   -0.2137   -0.6562 H   0  0  0  0  0  0  0  0  0  0  0  0
    9.1443   -1.7959    0.2138 H   0  0  0  0  0  0  0  0  0  0  0  0
    7.2808   -1.4497   -1.2306 H   0  0  0  0  0  0  0  0  0  0  0  0
    4.9454   -1.6897   -1.8714 H   0  0  0  0  0  0  0  0  0  0  0  0
    2.5602   -1.8056   -1.1009 H   0  0  0  0  0  0  0  0  0  0  0  0
    1.9487    0.9117    0.2069 H   0  0  0  0  0  0  0  0  0  0  0  0
    0.2309    1.0213    1.5545 H   0  0  0  0  0  0  0  0  0  0  0  0
   -0.0319    2.1977    0.2687 H   0  0  0  0  0  0  0  0  0  0  0  0
   -2.0656    1.0481    2.2282 H   0  0  0  0  0  0  0  0  0  0  0  0
   -1.4965    2.6855    2.1483 H   0  0  0  0  0  0  0  0  0  0  0  0
   -4.2370    1.6959    1.9028 H   0  0  0  0  0  0  0  0  0  0  0  0
   -2.2640    4.2385    0.3410 H   0  0  0  0  0  0  0  0  0  0  0  0
   -1.7497    3.2004   -0.9847 H   0  0  0  0  0  0  0  0  0  0  0  0
   -4.3645    4.6021   -0.5419 H   0  0  0  0  0  0  0  0  0  0  0  0
   -3.4589    4.3336   -2.0177 H   0  0  0  0  0  0  0  0  0  0  0  0
   -5.2895    2.9354   -2.3757 H   0  0  0  0  0  0  0  0  0  0  0  0
   -5.5152    2.5837   -0.6741 H   0  0  0  0  0  0  0  0  0  0  0  0
   -4.6950    0.5848   -1.8970 H   0  0  0  0  0  0  0  0  0  0  0  0
   -3.3102    1.5036   -2.4607 H   0  0  0  0  0  0  0  0  0  0  0  0
   -3.9428    0.3500    0.2423 H   0  0  0  0  0  0  0  0  0  0  0  0
   -1.8492    0.1868   -1.8172 H   0  0  0  0  0  0  0  0  0  0  0  0
   -2.7091   -1.7071   -2.7294 H   0  0  0  0  0  0  0  0  0  0  0  0
   -3.4824   -4.0369   -2.5712 H   0  0  0  0  0  0  0  0  0  0  0  0
   -3.6978   -5.1360   -0.3566 H   0  0  0  0  0  0  0  0  0  0  0  0
   -3.1283   -3.8917    1.6980 H   0  0  0  0  0  0  0  0  0  0  0  0
   -0.3510   -2.2898    1.8236 H   0  0  0  0  0  0  0  0  0  0  0  0
   -1.5101   -2.8637    3.0770 H   0  0  0  0  0  0  0  0  0  0  0  0
   -0.7734   -1.2606    3.2011 H   0  0  0  0  0  0  0  0  0  0  0  0
    3.7309    0.2973    1.7620 H   0  0  0  0  0  0  0  0  0  0  0  0
    6.0902    0.5514    2.3940 H   0  0  0  0  0  0  0  0  0  0  0  0
  1  2  1  0
  2  3  1  0
  3  4  2  0
  4  5  1  0
  5  6  2  0
  6  7  1  0
  7  8  2  0
  8  9  1  0
  9 10  2  0
  9 11  1  0
 11 12  1  0
 12 13  1  0
 13 14  1  0
 14 15  1  1
 14 16  1  0
 16 17  1  0
 17 18  1  0
 18 19  1  0
 19 20  1  0
 20 21  1  0
 21 22  1  0
 22 23  2  0
 23 24  1  0
 24 25  2  0
 25 26  1  0
 26 27  2  0
 27 28  1  0
 28 29  1  0
  6 30  1  0
 30 31  2  0
 31  3  1  0
 21 11  1  0
 27 22  1  0
 20 14  1  0
  1 32  1  0
  1 33  1  0
  1 34  1  0
  4 35  1  0
  5 36  1  0
  7 37  1  0
  8 38  1  0
 12 39  1  0
 12 40  1  0
 13 41  1  0
 13 42  1  0
 15 43  1  0
 16 44  1  0
 16 45  1  0
 17 46  1  0
 17 47  1  0
 18 48  1  0
 18 49  1  0
 19 50  1  0
 19 51  1  0
 20 52  1  1
 21 53  1  6
 23 54  1  0
 24 55  1  0
 25 56  1  0
 26 57  1  0
 29 58  1  0
 29 59  1  0
 29 60  1  0
 30 61  1  0
 31 62  1  0
M  END
$$$$
